polyoxin D
 OpenBabel03171423152D

 36 37  0  0  0  0  0  0  0  0999 V2000
    2.2806   -9.6788    0.0000 N   0  0  0  0  0  0  0  0  0  0  0  0
    2.4787   -8.8779    0.0000 C   0  0  3  0  0  0  0  0  0  0  0  0
    1.8843   -8.3059    0.0000 C   0  0  3  0  0  0  0  0  0  0  0  0
    2.0824   -7.5051    0.0000 O   0  0  0  0  0  0  0  0  0  0  0  0
    1.0916   -8.5347    0.0000 C   0  0  3  0  0  0  0  0  0  0  0  0
    0.8935   -9.3356    0.0000 O   0  0  0  0  0  0  0  0  0  0  0  0
    0.4971   -7.9627    0.0000 C   0  0  0  0  0  0  0  0  0  0  0  0
   -0.2955   -8.1915    0.0000 O   0  0  0  0  0  0  0  0  0  0  0  0
   -0.8900   -7.6195    0.0000 C   0  0  0  0  0  0  0  0  0  0  0  0
   -1.6826   -7.8483    0.0000 N   0  0  0  0  0  0  0  0  0  0  0  0
   -0.6918   -6.8186    0.0000 O   0  0  0  0  0  0  0  0  0  0  0  0
    3.2714   -8.6491    0.0000 C   0  0  0  0  0  0  0  0  0  0  0  0
    3.4695   -7.8483    0.0000 O   0  0  0  0  0  0  0  0  0  0  0  0
    3.8658   -9.2212    0.0000 N   0  0  0  0  0  0  0  0  0  0  0  0
    4.6585   -8.9923    0.0000 C   0  0  3  0  0  0  0  0  0  0  0  0
    5.2530   -9.5644    0.0000 C   0  0  3  0  0  0  0  0  0  0  0  0
    6.0652   -9.4197    0.0000 O   0  0  0  0  0  0  0  0  0  0  0  0
    6.4538  -10.1474    0.0000 C   0  0  3  0  0  0  0  0  0  0  0  0
    5.8817  -10.7419    0.0000 C   0  0  3  0  0  0  0  0  0  0  0  0
    6.0264  -11.5541    0.0000 O   0  0  0  0  0  0  0  0  0  0  0  0
    5.1396  -10.3816    0.0000 C   0  0  3  0  0  0  0  0  0  0  0  0
    4.4118  -10.7702    0.0000 O   0  0  0  0  0  0  0  0  0  0  0  0
    7.2709  -10.2608    0.0000 N   0  0  0  0  0  0  0  0  0  0  0  0
    7.7777   -9.6098    0.0000 C   0  0  0  0  0  0  0  0  0  0  0  0
    8.5949   -9.7231    0.0000 C   0  0  0  0  0  0  0  0  0  0  0  0
    9.1016   -9.0721    0.0000 C   0  0  0  0  0  0  0  0  0  0  0  0
    8.7912   -8.3077    0.0000 O   0  0  0  0  0  0  0  0  0  0  0  0
    9.9188   -9.1855    0.0000 O   0  0  0  0  0  0  0  0  0  0  0  0
    8.9053  -10.4875    0.0000 C   0  0  0  0  0  0  0  0  0  0  0  0
    9.7225  -10.6009    0.0000 O   0  0  0  0  0  0  0  0  0  0  0  0
    8.3985  -11.1385    0.0000 N   0  0  0  0  0  0  0  0  0  0  0  0
    7.5814  -11.0252    0.0000 C   0  0  0  0  0  0  0  0  0  0  0  0
    7.0746  -11.6762    0.0000 O   0  0  0  0  0  0  0  0  0  0  0  0
    4.8566   -8.1915    0.0000 C   0  0  0  0  0  0  0  0  0  0  0  0
    4.2622   -7.6195    0.0000 O   0  0  0  0  0  0  0  0  0  0  0  0
    5.6493   -7.9627    0.0000 O   0  0  0  0  0  0  0  0  0  0  0  0
  1  2  1  0  0  0  0
  2  3  1  0  0  0  0
  2 12  1  0  0  0  0
  3  4  1  0  0  0  0
  3  5  1  0  0  0  0
  5  6  1  0  0  0  0
  5  7  1  0  0  0  0
  7  8  1  0  0  0  0
  8  9  1  0  0  0  0
  9 10  1  0  0  0  0
  9 11  2  0  0  0  0
 12 13  2  0  0  0  0
 12 14  1  0  0  0  0
 14 15  1  0  0  0  0
 15 16  1  0  0  0  0
 15 34  1  0  0  0  0
 16 17  1  0  0  0  0
 16 21  1  0  0  0  0
 17 18  1  0  0  0  0
 18 19  1  0  0  0  0
 18 23  1  0  0  0  0
 19 20  1  0  0  0  0
 19 21  1  0  0  0  0
 21 22  1  0  0  0  0
 23 24  1  0  0  0  0
 23 32  1  0  0  0  0
 24 25  2  0  0  0  0
 25 26  1  0  0  0  0
 25 29  1  0  0  0  0
 26 27  1  0  0  0  0
 26 28  2  0  0  0  0
 29 30  2  0  0  0  0
 29 31  1  0  0  0  0
 31 32  1  0  0  0  0
 32 33  2  0  0  0  0
 34 35  1  0  0  0  0
 34 36  2  0  0  0  0
M  END
>  <type>
common

$$$$
Lecithin
 OpenBabel03171423152D

 62 61  0  0  1  0  0  0  0  0999 V2000
    7.0934   -9.0454    0.0000 C   0  0  0  0  0  0  0  0  0  0  0  0
    7.0934   -8.2204    0.0000 C   0  0  0  0  0  0  0  0  0  0  0  0
    7.8079   -7.8079    0.0000 C   0  0  0  0  0  0  0  0  0  0  0  0
    7.8079   -6.9829    0.0000 C   0  0  0  0  0  0  0  0  0  0  0  0
    7.0934   -6.5704    0.0000 C   0  0  0  0  0  0  0  0  0  0  0  0
    7.0934   -5.7454    0.0000 C   0  0  0  0  0  0  0  0  0  0  0  0
    6.3789   -5.3329    0.0000 C   0  0  0  0  0  0  0  0  0  0  0  0
    5.6645   -5.7454    0.0000 C   0  0  0  0  0  0  0  0  0  0  0  0
    4.9500   -5.3329    0.0000 C   0  0  0  0  0  0  0  0  0  0  0  0
    4.2355   -5.7454    0.0000 C   0  0  0  0  0  0  0  0  0  0  0  0
    4.2355   -6.5704    0.0000 C   0  0  0  0  0  0  0  0  0  0  0  0
    3.5211   -6.9829    0.0000 C   0  0  0  0  0  0  0  0  0  0  0  0
    2.8066   -6.5704    0.0000 C   0  0  0  0  0  0  0  0  0  0  0  0
    2.8066   -5.7454    0.0000 C   0  0  0  0  0  0  0  0  0  0  0  0
    2.0921   -5.3329    0.0000 C   0  0  0  0  0  0  0  0  0  0  0  0
    2.0921   -4.5079    0.0000 C   0  0  0  0  0  0  0  0  0  0  0  0
    2.8066   -4.0954    0.0000 C   0  0  0  0  0  0  0  0  0  0  0  0
    2.8066   -3.2704    0.0000 C   0  0  0  0  0  0  0  0  0  0  0  0
    3.5211   -2.8579    0.0000 C   0  0  0  0  0  0  0  0  0  0  0  0
    4.2355   -3.2704    0.0000 C   0  0  0  0  0  0  0  0  0  0  0  0
    4.9500   -2.8579    0.0000 C   0  0  0  0  0  0  0  0  0  0  0  0
    5.6645   -3.2704    0.0000 C   0  0  0  0  0  0  0  0  0  0  0  0
    5.6645   -4.0954    0.0000 O   0  0  0  0  0  0  0  0  0  0  0  0
    6.3789   -2.8579    0.0000 O   0  0  0  0  0  0  0  0  0  0  0  0
    7.0934   -3.2704    0.0000 C   0  0  0  0  0  0  0  0  0  0  0  0
    7.8079   -2.8579    0.0000 C   0  0  2  0  0  0  0  0  0  0  0  0
    7.8079   -2.0329    0.0000 C   0  0  0  0  0  0  0  0  0  0  0  0
    7.0934   -1.6204    0.0000 O   0  0  0  0  0  0  0  0  0  0  0  0
    7.0934   -0.7954    0.0000 P   0  0  3  0  0  0  0  0  0  0  0  0
    7.0934    0.0296    0.0000 O   0  0  0  0  0  0  0  0  0  0  0  0
    6.2684   -0.7954    0.0000 O   0  5  0  0  0  0  0  0  0  0  0  0
    7.9184   -0.7954    0.0000 O   0  0  0  0  0  0  0  0  0  0  0  0
    8.3309   -0.0809    0.0000 C   0  0  0  0  0  0  0  0  0  0  0  0
    7.9184    0.6336    0.0000 C   0  0  0  0  0  0  0  0  0  0  0  0
    8.3309    1.3480    0.0000 N   0  3  0  0  0  0  0  0  0  0  0  0
    9.0454    0.9355    0.0000 C   0  0  0  0  0  0  0  0  0  0  0  0
    7.6164    1.7605    0.0000 C   0  0  0  0  0  0  0  0  0  0  0  0
    8.7434    2.0625    0.0000 C   0  0  0  0  0  0  0  0  0  0  0  0
    8.5224   -3.2704    0.0000 O   0  0  0  0  0  0  0  0  0  0  0  0
    9.2368   -2.8579    0.0000 C   0  0  0  0  0  0  0  0  0  0  0  0
    9.2368   -2.0329    0.0000 O   0  0  0  0  0  0  0  0  0  0  0  0
    9.9513   -3.2704    0.0000 C   0  0  0  0  0  0  0  0  0  0  0  0
   10.6658   -2.8579    0.0000 C   0  0  0  0  0  0  0  0  0  0  0  0
   11.3802   -3.2704    0.0000 C   0  0  0  0  0  0  0  0  0  0  0  0
   12.0947   -2.8579    0.0000 C   0  0  0  0  0  0  0  0  0  0  0  0
   12.0947   -2.0329    0.0000 C   0  0  0  0  0  0  0  0  0  0  0  0
   12.8092   -1.6204    0.0000 C   0  0  0  0  0  0  0  0  0  0  0  0
   13.5237   -2.0329    0.0000 C   0  0  0  0  0  0  0  0  0  0  0  0
   13.5237   -2.8579    0.0000 C   0  0  0  0  0  0  0  0  0  0  0  0
   14.2381   -3.2704    0.0000 C   0  0  0  0  0  0  0  0  0  0  0  0
   14.2381   -4.0954    0.0000 C   0  0  0  0  0  0  0  0  0  0  0  0
   13.5237   -4.5079    0.0000 C   0  0  0  0  0  0  0  0  0  0  0  0
   12.8092   -4.0954    0.0000 C   0  0  0  0  0  0  0  0  0  0  0  0
   12.0947   -4.5079    0.0000 C   0  0  0  0  0  0  0  0  0  0  0  0
   12.0947   -5.3329    0.0000 C   0  0  0  0  0  0  0  0  0  0  0  0
   11.3802   -5.7454    0.0000 C   0  0  0  0  0  0  0  0  0  0  0  0
   11.3802   -6.5704    0.0000 C   0  0  0  0  0  0  0  0  0  0  0  0
   12.0947   -6.9829    0.0000 C   0  0  0  0  0  0  0  0  0  0  0  0
   12.0947   -7.8079    0.0000 C   0  0  0  0  0  0  0  0  0  0  0  0
   12.8092   -8.2204    0.0000 C   0  0  0  0  0  0  0  0  0  0  0  0
   13.5237   -7.8079    0.0000 C   0  0  0  0  0  0  0  0  0  0  0  0
   14.2381   -8.2204    0.0000 C   0  0  0  0  0  0  0  0  0  0  0  0
  1  2  1  0  0  0  0
  2  3  1  0  0  0  0
  3  4  2  0  0  0  0
  4  5  1  0  0  0  0
  5  6  1  0  0  0  0
  6  7  2  0  0  0  0
  7  8  1  0  0  0  0
  8  9  1  0  0  0  0
  9 10  2  0  0  0  0
 10 11  1  0  0  0  0
 11 12  1  0  0  0  0
 12 13  2  0  0  0  0
 13 14  1  0  0  0  0
 14 15  1  0  0  0  0
 15 16  2  0  0  0  0
 16 17  1  0  0  0  0
 17 18  1  0  0  0  0
 18 19  2  0  0  0  0
 19 20  1  0  0  0  0
 20 21  1  0  0  0  0
 21 22  1  0  0  0  0
 22 23  2  0  0  0  0
 22 24  1  0  0  0  0
 24 25  1  0  0  0  0
 26 25  1  6  0  0  0
 26 27  1  0  0  0  0
 26 39  1  0  0  0  0
 27 28  1  0  0  0  0
 28 29  1  0  0  0  0
 29 30  2  0  0  0  0
 29 31  1  0  0  0  0
 29 32  1  0  0  0  0
 32 33  1  0  0  0  0
 33 34  1  0  0  0  0
 34 35  1  0  0  0  0
 35 36  1  0  0  0  0
 35 37  1  0  0  0  0
 35 38  1  0  0  0  0
 39 40  1  0  0  0  0
 40 41  2  0  0  0  0
 40 42  1  0  0  0  0
 42 43  1  0  0  0  0
 43 44  1  0  0  0  0
 44 45  2  0  0  0  0
 45 46  1  0  0  0  0
 46 47  1  0  0  0  0
 47 48  2  0  0  0  0
 48 49  1  0  0  0  0
 49 50  1  0  0  0  0
 50 51  2  0  0  0  0
 51 52  1  0  0  0  0
 52 53  1  0  0  0  0
 53 54  2  0  0  0  0
 54 55  1  0  0  0  0
 55 56  1  0  0  0  0
 56 57  2  0  0  0  0
 57 58  1  0  0  0  0
 58 59  1  0  0  0  0
 59 60  2  0  0  0  0
 60 61  1  0  0  0  0
 61 62  1  0  0  0  0
M  CHG  2  31  -1  35   1
M  END
>  <type>
common

$$$$
2-(hydroxymethylamino)ethanol
 OpenBabel03171423152D

  6  5  0  0  0  0  0  0  0  0999 V2000
   -0.1914    0.7145    0.0000 O   0  0  0  0  0  0  0  0  0  0  0  0
    0.5230    1.1270    0.0000 C   0  0  0  0  0  0  0  0  0  0  0  0
    1.2375    0.7145    0.0000 C   0  0  0  0  0  0  0  0  0  0  0  0
    1.9520    1.1270    0.0000 N   0  0  0  0  0  0  0  0  0  0  0  0
    2.6664    0.7145    0.0000 C   0  0  0  0  0  0  0  0  0  0  0  0
    3.3809    1.1270    0.0000 O   0  0  0  0  0  0  0  0  0  0  0  0
  1  2  1  0  0  0  0
  2  3  1  0  0  0  0
  3  4  1  0  0  0  0
  4  5  1  0  0  0  0
  5  6  1  0  0  0  0
M  END
$$$$
dimethomorph
 OpenBabel03171423152D

 27 29  0  0  0  0  0  0  0  0999 V2000
   -1.4289   -0.0000    0.0000 C   0  0  0  0  0  0  0  0  0  0  0  0
   -0.7145   -0.4125    0.0000 O   0  0  0  0  0  0  0  0  0  0  0  0
   -0.7145   -1.2375    0.0000 C   0  0  0  0  0  0  0  0  0  0  0  0
    0.0000   -1.6500    0.0000 C   0  0  0  0  0  0  0  0  0  0  0  0
    0.7145   -1.2375    0.0000 O   0  0  0  0  0  0  0  0  0  0  0  0
    1.4289   -1.6500    0.0000 C   0  0  0  0  0  0  0  0  0  0  0  0
    0.0000   -2.4750    0.0000 C   0  0  0  0  0  0  0  0  0  0  0  0
   -0.7145   -2.8875    0.0000 C   0  0  0  0  0  0  0  0  0  0  0  0
   -1.4289   -2.4750    0.0000 C   0  0  0  0  0  0  0  0  0  0  0  0
   -1.4289   -1.6500    0.0000 C   0  0  0  0  0  0  0  0  0  0  0  0
   -0.7145   -3.7125    0.0000 C   0  0  0  0  0  0  0  0  0  0  0  0
   -1.4289   -4.1250    0.0000 C   0  0  0  0  0  0  0  0  0  0  0  0
   -1.4289   -4.9500    0.0000 C   0  0  0  0  0  0  0  0  0  0  0  0
   -0.7145   -5.3625    0.0000 O   0  0  0  0  0  0  0  0  0  0  0  0
   -2.1434   -5.3625    0.0000 N   0  0  0  0  0  0  0  0  0  0  0  0
   -2.1434   -6.1875    0.0000 C   0  0  0  0  0  0  0  0  0  0  0  0
   -2.8579   -6.6000    0.0000 C   0  0  0  0  0  0  0  0  0  0  0  0
   -3.5724   -6.1875    0.0000 O   0  0  0  0  0  0  0  0  0  0  0  0
   -3.5724   -5.3625    0.0000 C   0  0  0  0  0  0  0  0  0  0  0  0
   -2.8579   -4.9500    0.0000 C   0  0  0  0  0  0  0  0  0  0  0  0
   -0.0000   -4.1250    0.0000 C   0  0  0  0  0  0  0  0  0  0  0  0
    0.7145   -3.7125    0.0000 C   0  0  0  0  0  0  0  0  0  0  0  0
    1.4289   -4.1250    0.0000 C   0  0  0  0  0  0  0  0  0  0  0  0
    1.4289   -4.9500    0.0000 C   0  0  0  0  0  0  0  0  0  0  0  0
    2.1434   -5.3625    0.0000 Cl  0  0  0  0  0  0  0  0  0  0  0  0
    0.7145   -5.3625    0.0000 C   0  0  0  0  0  0  0  0  0  0  0  0
   -0.0000   -4.9500    0.0000 C   0  0  0  0  0  0  0  0  0  0  0  0
  1  2  1  0  0  0  0
  2  3  1  0  0  0  0
  3  4  2  0  0  0  0
  3 10  1  0  0  0  0
  4  5  1  0  0  0  0
  4  7  1  0  0  0  0
  5  6  1  0  0  0  0
  7  8  2  0  0  0  0
  8  9  1  0  0  0  0
  8 11  1  0  0  0  0
  9 10  2  0  0  0  0
 11 12  2  0  0  0  0
 11 21  1  0  0  0  0
 12 13  1  0  0  0  0
 13 14  2  0  0  0  0
 13 15  1  0  0  0  0
 15 16  1  0  0  0  0
 15 20  1  0  0  0  0
 16 17  1  0  0  0  0
 17 18  1  0  0  0  0
 18 19  1  0  0  0  0
 19 20  1  0  0  0  0
 21 22  2  0  0  0  0
 21 27  1  0  0  0  0
 22 23  1  0  0  0  0
 23 24  2  0  0  0  0
 24 25  1  0  0  0  0
 24 26  1  0  0  0  0
 26 27  2  0  0  0  0
M  END
$$$$
5-dimethyl-imidazolidine-2,4-dione
 OpenBabel03171423152D

  9  9  0  0  0  0  0  0  0  0999 V2000
    1.1198    1.7274    0.0000 C   0  0  0  0  0  0  0  0  0  0  0  0
    0.5678    1.1143    0.0000 C   0  0  0  0  0  0  0  0  0  0  0  0
    0.0157    1.7274    0.0000 C   0  0  0  0  0  0  0  0  0  0  0  0
    1.2352    0.6294    0.0000 N   0  0  0  0  0  0  0  0  0  0  0  0
    0.9803   -0.1553    0.0000 C   0  0  0  0  0  0  0  0  0  0  0  0
    1.4652   -0.8227    0.0000 O   0  0  0  0  0  0  0  0  0  0  0  0
    0.1553   -0.1553    0.0000 N   0  0  0  0  0  0  0  0  0  0  0  0
   -0.0997    0.6294    0.0000 C   0  0  0  0  0  0  0  0  0  0  0  0
   -0.8843    0.8843    0.0000 O   0  0  0  0  0  0  0  0  0  0  0  0
  1  2  1  0  0  0  0
  2  3  1  0  0  0  0
  2  4  1  0  0  0  0
  2  8  1  0  0  0  0
  4  5  1  0  0  0  0
  5  6  2  0  0  0  0
  5  7  1  0  0  0  0
  7  8  1  0  0  0  0
  8  9  2  0  0  0  0
M  END
$$$$
saccharine
 OpenBabel03171423152D

 12 13  0  0  0  0  0  0  0  0999 V2000
   -0.3984    0.7541    0.0000 O   0  0  0  0  0  0  0  0  0  0  0  0
   -0.1435   -0.0305    0.0000 C   0  0  0  0  0  0  0  0  0  0  0  0
   -0.6284   -0.6979    0.0000 N   0  0  0  0  0  0  0  0  0  0  0  0
   -0.1435   -1.3654    0.0000 S   0  0  0  0  0  0  0  0  0  0  0  0
   -0.8580   -1.7779    0.0000 O   0  0  0  0  0  0  0  0  0  0  0  0
    0.1921   -2.1191    0.0000 O   0  0  0  0  0  0  0  0  0  0  0  0
    0.6411   -1.1104    0.0000 C   0  0  0  0  0  0  0  0  0  0  0  0
    0.6411   -0.2854    0.0000 C   0  0  0  0  0  0  0  0  0  0  0  0
    1.3556    0.1271    0.0000 C   0  0  0  0  0  0  0  0  0  0  0  0
    2.0701   -0.2854    0.0000 C   0  0  0  0  0  0  0  0  0  0  0  0
    2.0701   -1.1104    0.0000 C   0  0  0  0  0  0  0  0  0  0  0  0
    1.3556   -1.5229    0.0000 C   0  0  0  0  0  0  0  0  0  0  0  0
  1  2  2  0  0  0  0
  2  3  1  0  0  0  0
  2  8  1  0  0  0  0
  3  4  1  0  0  0  0
  4  5  2  0  0  0  0
  4  6  2  0  0  0  0
  4  7  1  0  0  0  0
  7  8  2  0  0  0  0
  7 12  1  0  0  0  0
  8  9  1  0  0  0  0
  9 10  2  0  0  0  0
 10 11  1  0  0  0  0
 11 12  2  0  0  0  0
M  END
$$$$
Dodecyl Sulfate
 OpenBabel03171423152D

 17 16  0  0  0  0  0  0  0  0999 V2000
    3.5211    2.8579    0.0000 C   0  0  0  0  0  0  0  0  0  0  0  0
    4.2355    3.2704    0.0000 C   0  0  0  0  0  0  0  0  0  0  0  0
    4.9500    2.8579    0.0000 C   0  0  0  0  0  0  0  0  0  0  0  0
    5.6645    3.2704    0.0000 C   0  0  0  0  0  0  0  0  0  0  0  0
    6.3789    2.8579    0.0000 C   0  0  0  0  0  0  0  0  0  0  0  0
    7.0934    3.2704    0.0000 C   0  0  0  0  0  0  0  0  0  0  0  0
    7.8079    2.8579    0.0000 C   0  0  0  0  0  0  0  0  0  0  0  0
    8.5224    3.2704    0.0000 C   0  0  0  0  0  0  0  0  0  0  0  0
    9.2368    2.8579    0.0000 C   0  0  0  0  0  0  0  0  0  0  0  0
    9.9513    3.2704    0.0000 C   0  0  0  0  0  0  0  0  0  0  0  0
   10.6658    2.8579    0.0000 C   0  0  0  0  0  0  0  0  0  0  0  0
   11.3802    3.2704    0.0000 C   0  0  0  0  0  0  0  0  0  0  0  0
   12.0947    2.8579    0.0000 O   0  0  0  0  0  0  0  0  0  0  0  0
   12.8092    3.2704    0.0000 S   0  0  0  0  0  0  0  0  0  0  0  0
   13.5237    3.6829    0.0000 O   0  5  0  0  0  0  0  0  0  0  0  0
   13.2217    2.5559    0.0000 O   0  0  0  0  0  0  0  0  0  0  0  0
   12.3967    3.9849    0.0000 O   0  0  0  0  0  0  0  0  0  0  0  0
  1  2  1  0  0  0  0
  2  3  1  0  0  0  0
  3  4  1  0  0  0  0
  4  5  1  0  0  0  0
  5  6  1  0  0  0  0
  6  7  1  0  0  0  0
  7  8  1  0  0  0  0
  8  9  1  0  0  0  0
  9 10  1  0  0  0  0
 10 11  1  0  0  0  0
 11 12  1  0  0  0  0
 12 13  1  0  0  0  0
 13 14  1  0  0  0  0
 14 15  1  0  0  0  0
 14 16  2  0  0  0  0
 14 17  2  0  0  0  0
M  CHG  1  15  -1
M  END
$$$$
N-dimethylaminosuccinamic acid
 OpenBabel03171423152D

 11 10  0  0  0  0  0  0  0  0999 V2000
    2.0625    0.7145    0.0000 C   0  0  0  0  0  0  0  0  0  0  0  0
    1.2375    0.7145    0.0000 N   0  0  0  0  0  0  0  0  0  0  0  0
    0.8250    1.4289    0.0000 C   0  0  0  0  0  0  0  0  0  0  0  0
    0.8250    0.0000    0.0000 N   0  0  0  0  0  0  0  0  0  0  0  0
    0.0000    0.0000    0.0000 C   0  0  0  0  0  0  0  0  0  0  0  0
   -0.4125    0.7145    0.0000 O   0  0  0  0  0  0  0  0  0  0  0  0
   -0.4125   -0.7145    0.0000 C   0  0  0  0  0  0  0  0  0  0  0  0
    0.0000   -1.4289    0.0000 C   0  0  0  0  0  0  0  0  0  0  0  0
   -0.4125   -2.1434    0.0000 C   0  0  0  0  0  0  0  0  0  0  0  0
    0.0000   -2.8579    0.0000 O   0  0  0  0  0  0  0  0  0  0  0  0
   -1.2375   -2.1434    0.0000 O   0  0  0  0  0  0  0  0  0  0  0  0
  1  2  1  0  0  0  0
  2  3  1  0  0  0  0
  4  2  1  0  0  0  0
  4  5  2  3  0  0  0
  5  6  1  0  0  0  0
  5  7  1  0  0  0  0
  7  8  1  0  0  0  0
  8  9  1  0  0  0  0
  9 10  1  0  0  0  0
  9 11  2  0  0  0  0
M  END
$$$$
NAA
 OpenBabel03171423152D

 14 15  0  0  0  0  0  0  0  0999 V2000
    0.7145   -3.7125    0.0000 O   0  0  0  0  0  0  0  0  0  0  0  0
    0.7145   -2.8875    0.0000 C   0  0  0  0  0  0  0  0  0  0  0  0
    0.0000   -2.4750    0.0000 O   0  0  0  0  0  0  0  0  0  0  0  0
    1.4289   -2.4750    0.0000 C   0  0  0  0  0  0  0  0  0  0  0  0
    1.4289   -1.6500    0.0000 C   0  0  0  0  0  0  0  0  0  0  0  0
    0.7145   -1.2375    0.0000 C   0  0  0  0  0  0  0  0  0  0  0  0
    0.7145   -0.4125    0.0000 C   0  0  0  0  0  0  0  0  0  0  0  0
    1.4289    0.0000    0.0000 C   0  0  0  0  0  0  0  0  0  0  0  0
    2.1434   -0.4125    0.0000 C   0  0  0  0  0  0  0  0  0  0  0  0
    2.8579    0.0000    0.0000 C   0  0  0  0  0  0  0  0  0  0  0  0
    3.5724   -0.4125    0.0000 C   0  0  0  0  0  0  0  0  0  0  0  0
    3.5724   -1.2375    0.0000 C   0  0  0  0  0  0  0  0  0  0  0  0
    2.8579   -1.6500    0.0000 C   0  0  0  0  0  0  0  0  0  0  0  0
    2.1434   -1.2375    0.0000 C   0  0  0  0  0  0  0  0  0  0  0  0
  1  2  1  0  0  0  0
  2  3  2  0  0  0  0
  2  4  1  0  0  0  0
  4  5  1  0  0  0  0
  5  6  2  0  0  0  0
  5 14  1  0  0  0  0
  6  7  1  0  0  0  0
  7  8  2  0  0  0  0
  8  9  1  0  0  0  0
  9 10  2  0  0  0  0
  9 14  1  0  0  0  0
 10 11  1  0  0  0  0
 11 12  2  0  0  0  0
 12 13  1  0  0  0  0
 13 14  2  0  0  0  0
M  END
$$$$
Tetrapotassium Pyrophosphate
 OpenBabel03171423152D

 13  8  0  0  0  0  0  0  0  0999 V2000
   -1.0320   -1.0542    0.0000 O   0  0  0  0  0  0  0  0  0  0  0  0
   -0.3175   -0.6417    0.0000 P   0  0  0  0  0  0  0  0  0  0  0  0
    0.0950   -1.3561    0.0000 O   0  0  0  0  0  0  0  0  0  0  0  0
   -0.7300    0.0728    0.0000 O   0  0  0  0  0  0  0  0  0  0  0  0
    0.3969   -0.2292    0.0000 O   0  0  0  0  0  0  0  0  0  0  0  0
    0.3969    0.5958    0.0000 P   0  0  0  0  0  0  0  0  0  0  0  0
    0.3969    1.4208    0.0000 O   0  0  0  0  0  0  0  0  0  0  0  0
    1.2219    0.5958    0.0000 O   0  0  0  0  0  0  0  0  0  0  0  0
   -0.4281    0.5958    0.0000 O   0  0  0  0  0  0  0  0  0  0  0  0
    3.3434    0.0000    0.0000 K   0  3  0  0  0 15  0  0  0  0  0  0
    4.2273    0.0000    0.0000 K   0  3  0  0  0 15  0  0  0  0  0  0
    0.0000   -3.0061    0.0000 K   0  3  0  0  0 15  0  0  0  0  0  0
    0.8839   -3.0061    0.0000 K   0  3  0  0  0 15  0  0  0  0  0  0
  1  2  1  0  0  0  0
  2  3  1  0  0  0  0
  2  4  2  0  0  0  0
  2  5  1  0  0  0  0
  5  6  1  0  0  0  0
  6  7  1  0  0  0  0
  6  8  1  0  0  0  0
  6  9  2  0  0  0  0
M  CHG  4  10   1  11   1  12   1  13   1
M  END
>  <type>
systematic

$$$$
difenacoum
 OpenBabel03171423152D

 34 39  0  0  0  0  0  0  0  0999 V2000
    2.1434   -0.4125    0.0000 O   0  0  0  0  0  0  0  0  0  0  0  0
    2.8579    0.0000    0.0000 C   0  0  0  0  0  0  0  0  0  0  0  0
    2.8579    0.8250    0.0000 C   0  0  0  0  0  0  0  0  0  0  0  0
    2.1434    1.2375    0.0000 C   0  0  3  0  0  0  0  0  0  0  0  0
    1.4289    0.8250    0.0000 C   0  0  0  0  0  0  0  0  0  0  0  0
    0.7145    1.2375    0.0000 C   0  0  3  0  0  0  0  0  0  0  0  0
    0.7145    2.0625    0.0000 C   0  0  0  0  0  0  0  0  0  0  0  0
    1.4289    2.4750    0.0000 C   0  0  0  0  0  0  0  0  0  0  0  0
    1.4289    3.3000    0.0000 C   0  0  0  0  0  0  0  0  0  0  0  0
    2.1434    3.7125    0.0000 C   0  0  0  0  0  0  0  0  0  0  0  0
    2.8579    3.3000    0.0000 C   0  0  0  0  0  0  0  0  0  0  0  0
    2.8579    2.4750    0.0000 C   0  0  0  0  0  0  0  0  0  0  0  0
    2.1434    2.0625    0.0000 C   0  0  0  0  0  0  0  0  0  0  0  0
   -0.0000    0.8250    0.0000 C   0  0  0  0  0  0  0  0  0  0  0  0
   -0.0000    0.0000    0.0000 C   0  0  0  0  0  0  0  0  0  0  0  0
   -0.7145   -0.4125    0.0000 C   0  0  0  0  0  0  0  0  0  0  0  0
   -1.4289    0.0000    0.0000 C   0  0  0  0  0  0  0  0  0  0  0  0
   -1.4289    0.8250    0.0000 C   0  0  0  0  0  0  0  0  0  0  0  0
   -0.7145    1.2375    0.0000 C   0  0  0  0  0  0  0  0  0  0  0  0
   -2.1434   -0.4125    0.0000 C   0  0  0  0  0  0  0  0  0  0  0  0
   -2.1434   -1.2375    0.0000 C   0  0  0  0  0  0  0  0  0  0  0  0
   -2.8579   -1.6500    0.0000 C   0  0  0  0  0  0  0  0  0  0  0  0
   -3.5724   -1.2375    0.0000 C   0  0  0  0  0  0  0  0  0  0  0  0
   -3.5724   -0.4125    0.0000 C   0  0  0  0  0  0  0  0  0  0  0  0
   -2.8579    0.0000    0.0000 C   0  0  0  0  0  0  0  0  0  0  0  0
    3.5724    1.2375    0.0000 C   0  0  0  0  0  0  0  0  0  0  0  0
    3.5724    2.0625    0.0000 O   0  0  0  0  0  0  0  0  0  0  0  0
    4.2868    0.8250    0.0000 C   0  0  0  0  0  0  0  0  0  0  0  0
    5.0013    1.2375    0.0000 C   0  0  0  0  0  0  0  0  0  0  0  0
    5.7158    0.8250    0.0000 C   0  0  0  0  0  0  0  0  0  0  0  0
    5.7158    0.0000    0.0000 C   0  0  0  0  0  0  0  0  0  0  0  0
    5.0013   -0.4125    0.0000 C   0  0  0  0  0  0  0  0  0  0  0  0
    4.2868    0.0000    0.0000 C   0  0  0  0  0  0  0  0  0  0  0  0
    3.5724   -0.4125    0.0000 O   0  0  0  0  0  0  0  0  0  0  0  0
  1  2  1  0  0  0  0
  2  3  2  0  0  0  0
  2 34  1  0  0  0  0
  3  4  1  0  0  0  0
  3 26  1  0  0  0  0
  4  5  1  0  0  0  0
  4 13  1  0  0  0  0
  5  6  1  0  0  0  0
  6  7  1  0  0  0  0
  6 14  1  0  0  0  0
  7  8  1  0  0  0  0
  8  9  2  0  0  0  0
  8 13  1  0  0  0  0
  9 10  1  0  0  0  0
 10 11  2  0  0  0  0
 11 12  1  0  0  0  0
 12 13  2  0  0  0  0
 14 15  2  0  0  0  0
 14 19  1  0  0  0  0
 15 16  1  0  0  0  0
 16 17  2  0  0  0  0
 17 18  1  0  0  0  0
 17 20  1  0  0  0  0
 18 19  2  0  0  0  0
 20 21  2  0  0  0  0
 20 25  1  0  0  0  0
 21 22  1  0  0  0  0
 22 23  2  0  0  0  0
 23 24  1  0  0  0  0
 24 25  2  0  0  0  0
 26 27  2  0  0  0  0
 26 28  1  0  0  0  0
 28 29  2  0  0  0  0
 28 33  1  0  0  0  0
 29 30  1  0  0  0  0
 30 31  2  0  0  0  0
 31 32  1  0  0  0  0
 32 33  2  0  0  0  0
 33 34  1  0  0  0  0
M  END
$$$$
bromoxynil octanoate
 OpenBabel03171423152D

 20 20  0  0  0  0  0  0  0  0999 V2000
    1.4289   -4.9500    0.0000 C   0  0  0  0  0  0  0  0  0  0  0  0
    2.1434   -5.3625    0.0000 C   0  0  0  0  0  0  0  0  0  0  0  0
    2.8579   -4.9500    0.0000 C   0  0  0  0  0  0  0  0  0  0  0  0
    3.5724   -5.3625    0.0000 C   0  0  0  0  0  0  0  0  0  0  0  0
    4.2868   -4.9500    0.0000 C   0  0  0  0  0  0  0  0  0  0  0  0
    5.0013   -5.3625    0.0000 C   0  0  0  0  0  0  0  0  0  0  0  0
    5.7158   -4.9500    0.0000 C   0  0  0  0  0  0  0  0  0  0  0  0
    6.4302   -5.3625    0.0000 C   0  0  0  0  0  0  0  0  0  0  0  0
    6.4302   -6.1875    0.0000 O   0  0  0  0  0  0  0  0  0  0  0  0
    7.1447   -4.9500    0.0000 O   0  0  0  0  0  0  0  0  0  0  0  0
    7.8592   -5.3625    0.0000 C   0  0  0  0  0  0  0  0  0  0  0  0
    8.5737   -4.9500    0.0000 C   0  0  0  0  0  0  0  0  0  0  0  0
    8.5737   -4.1250    0.0000 Br  0  0  0  0  0  0  0  0  0  0  0  0
    9.2881   -5.3625    0.0000 C   0  0  0  0  0  0  0  0  0  0  0  0
    9.2881   -6.1875    0.0000 C   0  0  0  0  0  0  0  0  0  0  0  0
    8.5737   -6.6000    0.0000 C   0  0  0  0  0  0  0  0  0  0  0  0
    7.8592   -6.1875    0.0000 C   0  0  0  0  0  0  0  0  0  0  0  0
    7.1447   -6.6000    0.0000 Br  0  0  0  0  0  0  0  0  0  0  0  0
   10.0026   -6.6000    0.0000 C   0  0  0  0  0  0  0  0  0  0  0  0
   10.7171   -7.0125    0.0000 N   0  0  0  0  0  0  0  0  0  0  0  0
  1  2  1  0  0  0  0
  2  3  1  0  0  0  0
  3  4  1  0  0  0  0
  4  5  1  0  0  0  0
  5  6  1  0  0  0  0
  6  7  1  0  0  0  0
  7  8  1  0  0  0  0
  8  9  2  0  0  0  0
  8 10  1  0  0  0  0
 10 11  1  0  0  0  0
 11 12  2  0  0  0  0
 11 17  1  0  0  0  0
 12 13  1  0  0  0  0
 12 14  1  0  0  0  0
 14 15  2  0  0  0  0
 15 16  1  0  0  0  0
 15 19  1  0  0  0  0
 16 17  2  0  0  0  0
 17 18  1  0  0  0  0
 19 20  3  0  0  0  0
M  END
$$$$
Gibberellins
 OpenBabel03171423152D

 25 29  0  0  1  0  0  0  0  0999 V2000
    2.0754   -1.5962    0.0000 C   0  0  0  0  0  0  0  0  0  0  0  0
    2.3392   -0.8145    0.0000 C   0  0  1  0  0  0  0  0  0  0  0  0
    1.7539   -1.2210    0.0000 C   0  0  1  0  0  0  0  0  0  0  0  0
    0.9248   -1.2927    0.0000 C   0  0  2  0  0  0  0  0  0  0  0  0
    0.5158   -2.0092    0.0000 C   0  0  0  0  0  0  0  0  0  0  0  0
   -0.3092   -2.0133    0.0000 O   0  0  0  0  0  0  0  0  0  0  0  0
    0.9318   -2.7217    0.0000 O   0  0  0  0  0  0  0  0  0  0  0  0
    0.5600   -0.5322    0.0000 C   0  0  1  0  0  0  0  0  0  0  0  0
   -0.2932   -0.8033    0.0000 C   0  0  0  0  0  0  0  0  0  0  0  0
   -0.8423   -0.1193    0.0000 C   0  0  0  0  0  0  0  0  0  0  0  0
   -1.6666   -0.1514    0.0000 C   0  0  0  0  0  0  0  0  0  0  0  0
   -0.3573    0.5917    0.0000 C   0  0  1  0  0  0  0  0  0  0  0  0
   -0.9779    1.1352    0.0000 O   0  0  0  0  0  0  0  0  0  0  0  0
    0.1446    0.0432    0.0000 C   0  0  0  0  0  0  0  0  0  0  0  0
    0.2863    1.1687    0.0000 C   0  0  0  0  0  0  0  0  0  0  0  0
    1.1073    0.9079    0.0000 C   0  0  0  0  0  0  0  0  0  0  0  0
    1.2372    0.0393    0.0000 C   0  0  1  0  0  0  0  0  0  0  0  0
    1.9408   -0.4174    0.0000 C   0  0  1  0  0  0  0  0  0  0  0  0
    1.4633    0.3239    0.0000 O   0  0  0  0  0  0  0  0  0  0  0  0
    2.0605   -0.0885    0.0000 C   0  0  0  0  0  0  0  0  0  0  0  0
    2.7090    0.4216    0.0000 O   0  0  0  0  0  0  0  0  0  0  0  0
    2.9108   -0.4741    0.0000 C   0  0  0  0  0  0  0  0  0  0  0  0
    3.4511   -0.0762    0.0000 C   0  0  0  0  0  0  0  0  0  0  0  0
    3.2655   -0.8841    0.0000 C   0  0  2  0  0  0  0  0  0  0  0  0
    3.7549   -1.5483    0.0000 O   0  0  0  0  0  0  0  0  0  0  0  0
  2  1  1  1  0  0  0
  2 20  1  0  0  0  0
  2 24  1  0  0  0  0
  3  2  1  1  0  0  0
  3  4  1  0  0  0  0
  3 18  1  0  0  0  0
  4  5  1  6  0  0  0
  4  8  1  0  0  0  0
  5  6  1  0  0  0  0
  5  7  2  0  0  0  0
  8  9  1  6  0  0  0
  8 14  1  0  0  0  0
  8 17  1  0  0  0  0
  9 10  1  0  0  0  0
 10 11  2  0  0  0  0
 10 12  1  0  0  0  0
 12 13  1  1  0  0  0
 12 14  1  0  0  0  0
 12 15  1  0  0  0  0
 15 16  1  0  0  0  0
 17 16  1  1  0  0  0
 17 18  1  0  0  0  0
 18 19  1  1  0  0  0
 18 22  1  0  0  0  0
 19 20  1  0  0  0  0
 20 21  2  0  0  0  0
 22 23  2  0  0  0  0
 23 24  1  0  0  0  0
 24 25  1  6  0  0  0
M  END
>  <type>
common

$$$$
bentazone
 OpenBabel03171423152D

 16 17  0  0  0  0  0  0  0  0999 V2000
   -2.1434   -1.2375    0.0000 C   0  0  0  0  0  0  0  0  0  0  0  0
   -1.4289   -1.6500    0.0000 C   0  0  0  0  0  0  0  0  0  0  0  0
   -1.4289   -2.4750    0.0000 C   0  0  0  0  0  0  0  0  0  0  0  0
   -0.7145   -1.2375    0.0000 N   0  0  0  0  0  0  0  0  0  0  0  0
    0.0000   -1.6500    0.0000 C   0  0  0  0  0  0  0  0  0  0  0  0
    0.0000   -2.4750    0.0000 O   0  0  0  0  0  0  0  0  0  0  0  0
    0.7145   -1.2375    0.0000 C   0  0  0  0  0  0  0  0  0  0  0  0
    0.7145   -0.4125    0.0000 C   0  0  0  0  0  0  0  0  0  0  0  0
    0.0000   -0.0000    0.0000 N   0  0  0  0  0  0  0  0  0  0  0  0
   -0.7145   -0.4125    0.0000 S   0  0  0  0  0  0  0  0  0  0  0  0
   -1.1517    0.2871    0.0000 O   0  0  0  0  0  0  0  0  0  0  0  0
   -1.5390   -0.3837    0.0000 O   0  0  0  0  0  0  0  0  0  0  0  0
    1.4289   -0.0000    0.0000 C   0  0  0  0  0  0  0  0  0  0  0  0
    2.1434   -0.4125    0.0000 C   0  0  0  0  0  0  0  0  0  0  0  0
    2.1434   -1.2375    0.0000 C   0  0  0  0  0  0  0  0  0  0  0  0
    1.4289   -1.6500    0.0000 C   0  0  0  0  0  0  0  0  0  0  0  0
  1  2  1  0  0  0  0
  2  3  1  0  0  0  0
  2  4  1  0  0  0  0
  4  5  1  0  0  0  0
  4 10  1  0  0  0  0
  5  6  2  0  0  0  0
  5  7  1  0  0  0  0
  7  8  2  0  0  0  0
  7 16  1  0  0  0  0
  8  9  1  0  0  0  0
  8 13  1  0  0  0  0
  9 10  1  0  0  0  0
 10 11  2  0  0  0  0
 10 12  2  0  0  0  0
 13 14  2  0  0  0  0
 14 15  1  0  0  0  0
 15 16  2  0  0  0  0
M  END
$$$$
fluridone
 OpenBabel03171423152D

 24 26  0  0  0  0  0  0  0  0999 V2000
    0.7145   -0.4125    0.0000 C   0  0  0  0  0  0  0  0  0  0  0  0
    0.7145   -1.2375    0.0000 N   0  0  0  0  0  0  0  0  0  0  0  0
    1.4289   -1.6500    0.0000 C   0  0  0  0  0  0  0  0  0  0  0  0
    1.4289   -2.4750    0.0000 C   0  0  0  0  0  0  0  0  0  0  0  0
    2.1434   -2.8875    0.0000 C   0  0  0  0  0  0  0  0  0  0  0  0
    2.8579   -2.4750    0.0000 C   0  0  0  0  0  0  0  0  0  0  0  0
    3.5724   -2.8875    0.0000 C   0  0  0  0  0  0  0  0  0  0  0  0
    3.5724   -3.7125    0.0000 C   0  0  0  0  0  0  0  0  0  0  0  0
    2.8579   -4.1250    0.0000 C   0  0  0  0  0  0  0  0  0  0  0  0
    2.1434   -3.7125    0.0000 C   0  0  0  0  0  0  0  0  0  0  0  0
    0.7145   -2.8875    0.0000 C   0  0  0  0  0  0  0  0  0  0  0  0
    0.7145   -3.7125    0.0000 O   0  0  0  0  0  0  0  0  0  0  0  0
    0.0000   -2.4750    0.0000 C   0  0  0  0  0  0  0  0  0  0  0  0
    0.0000   -1.6500    0.0000 C   0  0  0  0  0  0  0  0  0  0  0  0
   -0.7145   -2.8875    0.0000 C   0  0  0  0  0  0  0  0  0  0  0  0
   -0.7145   -3.7125    0.0000 C   0  0  0  0  0  0  0  0  0  0  0  0
   -1.4289   -4.1250    0.0000 C   0  0  0  0  0  0  0  0  0  0  0  0
   -2.1434   -3.7125    0.0000 C   0  0  0  0  0  0  0  0  0  0  0  0
   -2.1434   -2.8875    0.0000 C   0  0  0  0  0  0  0  0  0  0  0  0
   -1.4289   -2.4750    0.0000 C   0  0  0  0  0  0  0  0  0  0  0  0
   -1.4289   -4.9500    0.0000 C   0  0  0  0  0  0  0  0  0  0  0  0
   -1.4289   -5.7750    0.0000 F   0  0  0  0  0  0  0  0  0  0  0  0
   -2.2539   -4.9500    0.0000 F   0  0  0  0  0  0  0  0  0  0  0  0
   -0.6039   -4.9500    0.0000 F   0  0  0  0  0  0  0  0  0  0  0  0
  1  2  1  0  0  0  0
  2  3  1  0  0  0  0
  2 14  1  0  0  0  0
  3  4  2  0  0  0  0
  4  5  1  0  0  0  0
  4 11  1  0  0  0  0
  5  6  2  0  0  0  0
  5 10  1  0  0  0  0
  6  7  1  0  0  0  0
  7  8  2  0  0  0  0
  8  9  1  0  0  0  0
  9 10  2  0  0  0  0
 11 12  2  0  0  0  0
 11 13  1  0  0  0  0
 13 14  2  0  0  0  0
 13 15  1  0  0  0  0
 15 16  2  0  0  0  0
 15 20  1  0  0  0  0
 16 17  1  0  0  0  0
 17 18  2  0  0  0  0
 17 21  1  0  0  0  0
 18 19  1  0  0  0  0
 19 20  2  0  0  0  0
 21 22  1  0  0  0  0
 21 23  1  0  0  0  0
 21 24  1  0  0  0  0
M  END
$$$$
Methamidophos
 OpenBabel03171423152D

  7  6  0  0  0  0  0  0  0  0999 V2000
    2.4750   -1.4289    0.0000 C   0  0  0  0  0  0  0  0  0  0  0  0
    1.6500   -1.4289    0.0000 O   0  0  0  0  0  0  0  0  0  0  0  0
    1.2375   -0.7145    0.0000 P   0  0  3  0  0  0  0  0  0  0  0  0
    1.9520   -0.3020    0.0000 N   0  0  0  0  0  0  0  0  0  0  0  0
    0.5230   -1.1270    0.0000 O   0  0  0  0  0  0  0  0  0  0  0  0
    0.8250    0.0000    0.0000 S   0  0  0  0  0  0  0  0  0  0  0  0
    0.0000    0.0000    0.0000 C   0  0  0  0  0  0  0  0  0  0  0  0
  1  2  1  0  0  0  0
  2  3  1  0  0  0  0
  3  4  1  0  0  0  0
  3  5  2  0  0  0  0
  3  6  1  0  0  0  0
  6  7  1  0  0  0  0
M  END
>  <type>
common

$$$$
metconazole
 OpenBabel03171423152D

 22 24  0  0  0  0  0  0  0  0999 V2000
   -0.0557   -0.6860    0.0000 C   0  0  0  0  0  0  0  0  0  0  0  0
   -0.6078   -1.2991    0.0000 C   0  0  0  0  0  0  0  0  0  0  0  0
   -1.1598   -0.6860    0.0000 C   0  0  0  0  0  0  0  0  0  0  0  0
    0.0597   -1.7840    0.0000 C   0  0  0  0  0  0  0  0  0  0  0  0
   -0.1953   -2.5687    0.0000 C   0  0  0  0  0  0  0  0  0  0  0  0
   -1.0203   -2.5687    0.0000 C   0  0  3  0  0  0  0  0  0  0  0  0
   -1.5052   -3.2361    0.0000 C   0  0  0  0  0  0  0  0  0  0  0  0
   -1.1696   -3.9898    0.0000 C   0  0  0  0  0  0  0  0  0  0  0  0
   -0.3491   -4.0760    0.0000 C   0  0  0  0  0  0  0  0  0  0  0  0
   -0.0136   -4.8297    0.0000 C   0  0  0  0  0  0  0  0  0  0  0  0
   -0.4985   -5.4971    0.0000 C   0  0  0  0  0  0  0  0  0  0  0  0
   -0.1630   -6.2508    0.0000 Cl  0  0  0  0  0  0  0  0  0  0  0  0
   -1.3190   -5.4109    0.0000 C   0  0  0  0  0  0  0  0  0  0  0  0
   -1.6546   -4.6572    0.0000 C   0  0  0  0  0  0  0  0  0  0  0  0
   -1.2752   -1.7840    0.0000 C   0  0  3  0  0  0  0  0  0  0  0  0
   -2.0839   -1.9471    0.0000 O   0  0  0  0  0  0  0  0  0  0  0  0
   -1.8336   -1.1767    0.0000 C   0  0  0  0  0  0  0  0  0  0  0  0
   -1.5869   -0.3895    0.0000 N   0  0  0  0  0  0  0  0  0  0  0  0
   -2.0788    0.2728    0.0000 C   0  0  0  0  0  0  0  0  0  0  0  0
   -1.6009    0.9453    0.0000 N   0  0  0  0  0  0  0  0  0  0  0  0
   -0.8136    0.6986    0.0000 C   0  0  0  0  0  0  0  0  0  0  0  0
   -0.8050   -0.1264    0.0000 N   0  0  0  0  0  0  0  0  0  0  0  0
  1  2  1  0  0  0  0
  2  3  1  0  0  0  0
  2  4  1  0  0  0  0
  2 15  1  0  0  0  0
  4  5  1  0  0  0  0
  5  6  1  0  0  0  0
  6  7  1  0  0  0  0
  6 15  1  0  0  0  0
  7  8  1  0  0  0  0
  8  9  2  0  0  0  0
  8 14  1  0  0  0  0
  9 10  1  0  0  0  0
 10 11  2  0  0  0  0
 11 12  1  0  0  0  0
 11 13  1  0  0  0  0
 13 14  2  0  0  0  0
 15 16  1  0  0  0  0
 15 17  1  0  0  0  0
 17 18  1  0  0  0  0
 18 19  1  0  0  0  0
 18 22  1  0  0  0  0
 19 20  2  0  0  0  0
 20 21  1  0  0  0  0
 21 22  2  0  0  0  0
M  END
>  <type>
common

$$$$
Phosmet
 OpenBabel03171423152D

 19 20  0  0  0  0  0  0  0  0999 V2000
   -3.9284   -2.1269    0.0000 C   0  0  0  0  0  0  0  0  0  0  0  0
   -3.5159   -1.4124    0.0000 O   0  0  0  0  0  0  0  0  0  0  0  0
   -2.6909   -1.4124    0.0000 P   0  0  0  0  0  0  0  0  0  0  0  0
   -2.6909   -2.2374    0.0000 S   0  0  0  0  0  0  0  0  0  0  0  0
   -2.6909   -0.5874    0.0000 O   0  0  0  0  0  0  0  0  0  0  0  0
   -1.9765   -0.1749    0.0000 C   0  0  0  0  0  0  0  0  0  0  0  0
   -1.8659   -1.4124    0.0000 S   0  0  0  0  0  0  0  0  0  0  0  0
   -1.4534   -0.6979    0.0000 C   0  0  0  0  0  0  0  0  0  0  0  0
   -0.6284   -0.6979    0.0000 N   0  0  0  0  0  0  0  0  0  0  0  0
   -0.1435   -1.3654    0.0000 C   0  0  0  0  0  0  0  0  0  0  0  0
   -0.3984   -2.1500    0.0000 O   0  0  0  0  0  0  0  0  0  0  0  0
    0.6411   -1.1104    0.0000 C   0  0  0  0  0  0  0  0  0  0  0  0
    0.6411   -0.2854    0.0000 C   0  0  0  0  0  0  0  0  0  0  0  0
    1.3556    0.1271    0.0000 C   0  0  0  0  0  0  0  0  0  0  0  0
    2.0701   -0.2854    0.0000 C   0  0  0  0  0  0  0  0  0  0  0  0
    2.0701   -1.1104    0.0000 C   0  0  0  0  0  0  0  0  0  0  0  0
    1.3556   -1.5229    0.0000 C   0  0  0  0  0  0  0  0  0  0  0  0
   -0.1435   -0.0305    0.0000 C   0  0  0  0  0  0  0  0  0  0  0  0
   -0.3984    0.7541    0.0000 O   0  0  0  0  0  0  0  0  0  0  0  0
  1  2  1  0  0  0  0
  2  3  1  0  0  0  0
  3  4  2  0  0  0  0
  3  5  1  0  0  0  0
  3  7  1  0  0  0  0
  5  6  1  0  0  0  0
  7  8  1  0  0  0  0
  8  9  1  0  0  0  0
  9 10  1  0  0  0  0
  9 18  1  0  0  0  0
 10 11  2  0  0  0  0
 10 12  1  0  0  0  0
 12 13  2  0  0  0  0
 12 17  1  0  0  0  0
 13 14  1  0  0  0  0
 13 18  1  0  0  0  0
 14 15  2  0  0  0  0
 15 16  1  0  0  0  0
 16 17  2  0  0  0  0
 18 19  2  0  0  0  0
M  END
$$$$
sulfluramid
 OpenBabel03171423152D

 31 30  0  0  0  0  0  0  0  0999 V2000
    0.1105   -8.6625    0.0000 C   0  0  0  0  0  0  0  0  0  0  0  0
    0.1105   -7.8375    0.0000 C   0  0  0  0  0  0  0  0  0  0  0  0
    0.8250   -7.4250    0.0000 N   0  0  0  0  0  0  0  0  0  0  0  0
    0.8250   -6.6000    0.0000 S   0  0  0  0  0  0  0  0  0  0  0  0
    1.6500   -6.6000    0.0000 O   0  0  0  0  0  0  0  0  0  0  0  0
    0.0000   -6.6000    0.0000 O   0  0  0  0  0  0  0  0  0  0  0  0
    0.8250   -5.7750    0.0000 C   0  0  0  0  0  0  0  0  0  0  0  0
    1.6500   -5.7750    0.0000 F   0  0  0  0  0  0  0  0  0  0  0  0
    0.0000   -5.7750    0.0000 F   0  0  0  0  0  0  0  0  0  0  0  0
    0.8250   -4.9500    0.0000 C   0  0  0  0  0  0  0  0  0  0  0  0
    1.6500   -4.9500    0.0000 F   0  0  0  0  0  0  0  0  0  0  0  0
    0.0000   -4.9500    0.0000 F   0  0  0  0  0  0  0  0  0  0  0  0
    0.8250   -4.1250    0.0000 C   0  0  0  0  0  0  0  0  0  0  0  0
    1.6500   -4.1250    0.0000 F   0  0  0  0  0  0  0  0  0  0  0  0
    0.0000   -4.1250    0.0000 F   0  0  0  0  0  0  0  0  0  0  0  0
    0.8250   -3.3000    0.0000 C   0  0  0  0  0  0  0  0  0  0  0  0
    1.6500   -3.3000    0.0000 F   0  0  0  0  0  0  0  0  0  0  0  0
    0.0000   -3.3000    0.0000 F   0  0  0  0  0  0  0  0  0  0  0  0
    0.8250   -2.4750    0.0000 C   0  0  0  0  0  0  0  0  0  0  0  0
    1.6500   -2.4750    0.0000 F   0  0  0  0  0  0  0  0  0  0  0  0
    0.0000   -2.4750    0.0000 F   0  0  0  0  0  0  0  0  0  0  0  0
    0.8250   -1.6500    0.0000 C   0  0  0  0  0  0  0  0  0  0  0  0
    1.6500   -1.6500    0.0000 F   0  0  0  0  0  0  0  0  0  0  0  0
    0.0000   -1.6500    0.0000 F   0  0  0  0  0  0  0  0  0  0  0  0
    0.8250   -0.8250    0.0000 C   0  0  0  0  0  0  0  0  0  0  0  0
    1.6500   -0.8250    0.0000 F   0  0  0  0  0  0  0  0  0  0  0  0
    0.0000   -0.8250    0.0000 F   0  0  0  0  0  0  0  0  0  0  0  0
    0.8250    0.0000    0.0000 C   0  0  0  0  0  0  0  0  0  0  0  0
    0.8250    0.8250    0.0000 F   0  0  0  0  0  0  0  0  0  0  0  0
    1.6500   -0.0000    0.0000 F   0  0  0  0  0  0  0  0  0  0  0  0
    0.0000    0.0000    0.0000 F   0  0  0  0  0  0  0  0  0  0  0  0
  1  2  1  0  0  0  0
  2  3  1  0  0  0  0
  3  4  1  0  0  0  0
  4  5  2  0  0  0  0
  4  6  2  0  0  0  0
  4  7  1  0  0  0  0
  7  8  1  0  0  0  0
  7  9  1  0  0  0  0
  7 10  1  0  0  0  0
 10 11  1  0  0  0  0
 10 12  1  0  0  0  0
 10 13  1  0  0  0  0
 13 14  1  0  0  0  0
 13 15  1  0  0  0  0
 13 16  1  0  0  0  0
 16 17  1  0  0  0  0
 16 18  1  0  0  0  0
 16 19  1  0  0  0  0
 19 20  1  0  0  0  0
 19 21  1  0  0  0  0
 19 22  1  0  0  0  0
 22 23  1  0  0  0  0
 22 24  1  0  0  0  0
 22 25  1  0  0  0  0
 25 26  1  0  0  0  0
 25 27  1  0  0  0  0
 25 28  1  0  0  0  0
 28 29  1  0  0  0  0
 28 30  1  0  0  0  0
 28 31  1  0  0  0  0
M  END
$$$$
sulfo
 OpenBabel03171423152D

  4  3  0  0  0  0  0  0  0  0999 V2000
    1.2375    0.7145    0.0000 O   0  0  0  0  0  0  0  0  0  0  0  0
    0.8250    0.0000    0.0000 S   0  0  0  0  0  0  0  0  0  0  0  0
    1.2375   -0.7145    0.0000 O   0  0  0  0  0  0  0  0  0  0  0  0
    0.0000    0.0000    0.0000 O   0  0  0  0  0  0  0  0  0  0  0  0
  1  2  1  0  0  0  0
  2  3  2  0  0  0  0
  2  4  2  0  0  0  0
M  END
$$$$
poly(oxyethylene)- poly(oxypropylene)
 OpenBabel03171423152D

  7  6  0  0  0  0  0  0  0  0999 V2000
    2.0625    0.7145    0.0000 O   0  0  0  0  0  0  0  0  0  0  0  0
    1.2375    0.7145    0.0000 C   0  0  0  0  0  0  0  0  0  0  0  0
    0.8250    0.0000    0.0000 C   0  0  0  0  0  0  0  0  0  0  0  0
    0.0000    0.0000    0.0000 C   0  0  0  0  0  0  0  0  0  0  0  0
   -0.4125    0.7145    0.0000 O   0  0  0  0  0  0  0  0  0  0  0  0
   -0.4125   -0.7145    0.0000 C   0  0  0  0  0  0  0  0  0  0  0  0
    0.0000   -1.4289    0.0000 C   0  0  0  0  0  0  0  0  0  0  0  0
  1  2  1  0  0  0  0
  3  2  1  0  0  0  0
  3  4  2  3  0  0  0
  4  5  1  0  0  0  0
  4  6  1  0  0  0  0
  6  7  2  0  0  0  0
M  END
>  <Approximate>
true

$$$$
carbon monoxide
 OpenBabel03171423152D

  2  1  0  0  0  0  0  0  0  0999 V2000
    0.8250    0.0000    0.0000 C   0  0  0  0  0  0  0  0  0  0  0  0
    0.0000    0.0000    0.0000 O   0  0  0  0  0  0  0  0  0  0  0  0
  1  2  2  0  0  0  0
M  END
$$$$
S-ethyl di-propylthiocarbamate
 OpenBabel03171423152D

 12 11  0  0  0  0  0  0  0  0999 V2000
    1.2375   -2.1434    0.0000 C   0  0  0  0  0  0  0  0  0  0  0  0
    1.6500   -1.4289    0.0000 C   0  0  0  0  0  0  0  0  0  0  0  0
    2.4750   -1.4289    0.0000 C   0  0  0  0  0  0  0  0  0  0  0  0
    2.8875   -0.7145    0.0000 N   0  0  0  0  0  0  0  0  0  0  0  0
    2.4750    0.0000    0.0000 C   0  0  0  0  0  0  0  0  0  0  0  0
    1.6500   -0.0000    0.0000 C   0  0  0  0  0  0  0  0  0  0  0  0
    1.2375    0.7145    0.0000 C   0  0  0  0  0  0  0  0  0  0  0  0
    3.7125   -0.7145    0.0000 C   0  0  0  0  0  0  0  0  0  0  0  0
    4.1250   -1.4289    0.0000 O   0  0  0  0  0  0  0  0  0  0  0  0
    4.1250    0.0000    0.0000 S   0  0  0  0  0  0  0  0  0  0  0  0
    4.9500    0.0000    0.0000 C   0  0  0  0  0  0  0  0  0  0  0  0
    5.3625    0.7145    0.0000 C   0  0  0  0  0  0  0  0  0  0  0  0
  1  2  1  0  0  0  0
  2  3  1  0  0  0  0
  3  4  1  0  0  0  0
  4  5  1  0  0  0  0
  4  8  1  0  0  0  0
  5  6  1  0  0  0  0
  6  7  1  0  0  0  0
  8  9  2  0  0  0  0
  8 10  1  0  0  0  0
 10 11  1  0  0  0  0
 11 12  1  0  0  0  0
M  END
$$$$
Naphthalene, 1,4-dimethyl-
 OpenBabel03171423152D

 12 13  0  0  0  0  0  0  0  0999 V2000
    1.4289   -2.4750    0.0000 C   0  0  0  0  0  0  0  0  0  0  0  0
    1.4289   -1.6500    0.0000 C   0  0  0  0  0  0  0  0  0  0  0  0
    0.7145   -1.2375    0.0000 C   0  0  0  0  0  0  0  0  0  0  0  0
    0.7145   -0.4125    0.0000 C   0  0  0  0  0  0  0  0  0  0  0  0
    1.4289    0.0000    0.0000 C   0  0  0  0  0  0  0  0  0  0  0  0
    1.4289    0.8250    0.0000 C   0  0  0  0  0  0  0  0  0  0  0  0
    2.1434   -0.4125    0.0000 C   0  0  0  0  0  0  0  0  0  0  0  0
    2.8579    0.0000    0.0000 C   0  0  0  0  0  0  0  0  0  0  0  0
    3.5724   -0.4125    0.0000 C   0  0  0  0  0  0  0  0  0  0  0  0
    3.5724   -1.2375    0.0000 C   0  0  0  0  0  0  0  0  0  0  0  0
    2.8579   -1.6500    0.0000 C   0  0  0  0  0  0  0  0  0  0  0  0
    2.1434   -1.2375    0.0000 C   0  0  0  0  0  0  0  0  0  0  0  0
  1  2  1  0  0  0  0
  2  3  2  0  0  0  0
  2 12  1  0  0  0  0
  3  4  1  0  0  0  0
  4  5  2  0  0  0  0
  5  6  1  0  0  0  0
  5  7  1  0  0  0  0
  7  8  2  0  0  0  0
  7 12  1  0  0  0  0
  8  9  1  0  0  0  0
  9 10  2  0  0  0  0
 10 11  1  0  0  0  0
 11 12  2  0  0  0  0
M  END
$$$$
piperalin
 OpenBabel03171423152D

 21 22  0  0  0  0  0  0  0  0999 V2000
    2.1434   -5.3625    0.0000 C   0  0  0  0  0  0  0  0  0  0  0  0
    1.4289   -4.9500    0.0000 C   0  0  3  0  0  0  0  0  0  0  0  0
    0.7145   -5.3625    0.0000 C   0  0  0  0  0  0  0  0  0  0  0  0
    0.0000   -4.9500    0.0000 C   0  0  0  0  0  0  0  0  0  0  0  0
    0.0000   -4.1250    0.0000 C   0  0  0  0  0  0  0  0  0  0  0  0
    0.7145   -3.7125    0.0000 C   0  0  0  0  0  0  0  0  0  0  0  0
    1.4289   -4.1250    0.0000 N   0  0  0  0  0  0  0  0  0  0  0  0
    2.1434   -3.7125    0.0000 C   0  0  0  0  0  0  0  0  0  0  0  0
    2.8579   -4.1250    0.0000 C   0  0  0  0  0  0  0  0  0  0  0  0
    3.5724   -3.7125    0.0000 C   0  0  0  0  0  0  0  0  0  0  0  0
    4.2868   -4.1250    0.0000 O   0  0  0  0  0  0  0  0  0  0  0  0
    5.0013   -3.7125    0.0000 C   0  0  0  0  0  0  0  0  0  0  0  0
    5.0013   -2.8875    0.0000 O   0  0  0  0  0  0  0  0  0  0  0  0
    5.7158   -4.1250    0.0000 C   0  0  0  0  0  0  0  0  0  0  0  0
    6.4302   -3.7125    0.0000 C   0  0  0  0  0  0  0  0  0  0  0  0
    7.1447   -4.1250    0.0000 C   0  0  0  0  0  0  0  0  0  0  0  0
    7.8592   -3.7125    0.0000 Cl  0  0  0  0  0  0  0  0  0  0  0  0
    7.1447   -4.9500    0.0000 C   0  0  0  0  0  0  0  0  0  0  0  0
    7.8592   -5.3625    0.0000 Cl  0  0  0  0  0  0  0  0  0  0  0  0
    6.4302   -5.3625    0.0000 C   0  0  0  0  0  0  0  0  0  0  0  0
    5.7158   -4.9500    0.0000 C   0  0  0  0  0  0  0  0  0  0  0  0
  1  2  1  0  0  0  0
  2  3  1  0  0  0  0
  2  7  1  0  0  0  0
  3  4  1  0  0  0  0
  4  5  1  0  0  0  0
  5  6  1  0  0  0  0
  6  7  1  0  0  0  0
  7  8  1  0  0  0  0
  8  9  1  0  0  0  0
  9 10  1  0  0  0  0
 10 11  1  0  0  0  0
 11 12  1  0  0  0  0
 12 13  2  0  0  0  0
 12 14  1  0  0  0  0
 14 15  2  0  0  0  0
 14 21  1  0  0  0  0
 15 16  1  0  0  0  0
 16 17  1  0  0  0  0
 16 18  2  0  0  0  0
 18 19  1  0  0  0  0
 18 20  1  0  0  0  0
 20 21  2  0  0  0  0
M  END
$$$$
Cymoxanil
 OpenBabel03171423152D

 14 13  0  0  0  0  0  0  0  0999 V2000
    1.7605    1.8414    0.0000 C   0  0  0  0  0  0  0  0  0  0  0  0
    2.4750    1.4289    0.0000 C   0  0  0  0  0  0  0  0  0  0  0  0
    3.1895    1.8414    0.0000 N   0  0  0  0  0  0  0  0  0  0  0  0
    3.9039    1.4289    0.0000 C   0  0  0  0  0  0  0  0  0  0  0  0
    3.9039    0.6039    0.0000 O   0  0  0  0  0  0  0  0  0  0  0  0
    4.6184    1.8414    0.0000 N   0  0  0  0  0  0  0  0  0  0  0  0
    5.3329    1.4289    0.0000 C   0  0  0  0  0  0  0  0  0  0  0  0
    5.3329    0.6039    0.0000 O   0  0  0  0  0  0  0  0  0  0  0  0
    6.0474    1.8414    0.0000 C   0  0  0  0  0  0  0  0  0  0  0  0
    6.7618    1.4289    0.0000 N   0  0  0  0  0  0  0  0  0  0  0  0
    7.4763    1.8414    0.0000 O   0  0  0  0  0  0  0  0  0  0  0  0
    7.4763    2.6664    0.0000 C   0  0  0  0  0  0  0  0  0  0  0  0
    6.0474    2.6664    0.0000 C   0  0  0  0  0  0  0  0  0  0  0  0
    6.0474    3.4914    0.0000 N   0  0  0  0  0  0  0  0  0  0  0  0
  1  2  1  0  0  0  0
  2  3  1  0  0  0  0
  3  4  1  0  0  0  0
  4  5  2  0  0  0  0
  4  6  1  0  0  0  0
  6  7  1  0  0  0  0
  7  8  2  0  0  0  0
  7  9  1  0  0  0  0
  9 10  2  0  0  0  0
  9 13  1  0  0  0  0
 10 11  1  0  0  0  0
 11 12  1  0  0  0  0
 13 14  3  0  0  0  0
M  END
>  <type>
common

$$$$
ethylene glycol monobutyl ether
 OpenBabel03171423152D

  8  7  0  0  0  0  0  0  0  0999 V2000
    1.0461    1.4289    0.0000 C   0  0  0  0  0  0  0  0  0  0  0  0
    1.7605    1.8414    0.0000 C   0  0  0  0  0  0  0  0  0  0  0  0
    2.4750    1.4289    0.0000 C   0  0  0  0  0  0  0  0  0  0  0  0
    3.1895    1.8414    0.0000 C   0  0  0  0  0  0  0  0  0  0  0  0
    3.9039    1.4289    0.0000 O   0  0  0  0  0  0  0  0  0  0  0  0
    4.6184    1.8414    0.0000 C   0  0  0  0  0  0  0  0  0  0  0  0
    5.3329    1.4289    0.0000 C   0  0  0  0  0  0  0  0  0  0  0  0
    6.0474    1.8414    0.0000 O   0  0  0  0  0  0  0  0  0  0  0  0
  1  2  1  0  0  0  0
  2  3  1  0  0  0  0
  3  4  1  0  0  0  0
  4  5  1  0  0  0  0
  5  6  1  0  0  0  0
  6  7  1  0  0  0  0
  7  8  1  0  0  0  0
M  END
$$$$
fenpyroximate
 OpenBabel03171423152D

 31 33  0  0  0  0  0  0  0  0999 V2000
    2.0367   -0.4741    0.0000 C   0  0  0  0  0  0  0  0  0  0  0  0
    2.0367   -1.2991    0.0000 N   0  0  0  0  0  0  0  0  0  0  0  0
    2.7041   -1.7840    0.0000 N   0  0  0  0  0  0  0  0  0  0  0  0
    2.4492   -2.5687    0.0000 C   0  0  0  0  0  0  0  0  0  0  0  0
    2.9341   -3.2361    0.0000 C   0  0  0  0  0  0  0  0  0  0  0  0
    1.6242   -2.5687    0.0000 C   0  0  0  0  0  0  0  0  0  0  0  0
    1.1393   -3.2361    0.0000 C   0  0  0  0  0  0  0  0  0  0  0  0
    0.3188   -3.1499    0.0000 N   0  0  0  0  0  0  0  0  0  0  0  0
   -0.1661   -3.8173    0.0000 O   0  0  0  0  0  0  0  0  0  0  0  0
   -0.9866   -3.7311    0.0000 C   0  0  0  0  0  0  0  0  0  0  0  0
   -1.4715   -4.3985    0.0000 C   0  0  0  0  0  0  0  0  0  0  0  0
   -1.1360   -5.1522    0.0000 C   0  0  0  0  0  0  0  0  0  0  0  0
   -1.6209   -5.8196    0.0000 C   0  0  0  0  0  0  0  0  0  0  0  0
   -2.4414   -5.7334    0.0000 C   0  0  0  0  0  0  0  0  0  0  0  0
   -2.7769   -4.9797    0.0000 C   0  0  0  0  0  0  0  0  0  0  0  0
   -2.2920   -4.3123    0.0000 C   0  0  0  0  0  0  0  0  0  0  0  0
   -2.9263   -6.4008    0.0000 C   0  0  0  0  0  0  0  0  0  0  0  0
   -2.5907   -7.1545    0.0000 O   0  0  0  0  0  0  0  0  0  0  0  0
   -3.7468   -6.3146    0.0000 O   0  0  0  0  0  0  0  0  0  0  0  0
   -4.2317   -6.9820    0.0000 C   0  0  0  0  0  0  0  0  0  0  0  0
   -4.7166   -7.6495    0.0000 C   0  0  0  0  0  0  0  0  0  0  0  0
   -3.5643   -7.4669    0.0000 C   0  0  0  0  0  0  0  0  0  0  0  0
   -4.8991   -6.4971    0.0000 C   0  0  0  0  0  0  0  0  0  0  0  0
    1.3693   -1.7840    0.0000 C   0  0  0  0  0  0  0  0  0  0  0  0
    0.5846   -1.5291    0.0000 O   0  0  0  0  0  0  0  0  0  0  0  0
    0.4131   -0.7221    0.0000 C   0  0  0  0  0  0  0  0  0  0  0  0
   -0.3715   -0.4672    0.0000 C   0  0  0  0  0  0  0  0  0  0  0  0
   -0.5430    0.3398    0.0000 C   0  0  0  0  0  0  0  0  0  0  0  0
    0.0701    0.8918    0.0000 C   0  0  0  0  0  0  0  0  0  0  0  0
    0.8547    0.6369    0.0000 C   0  0  0  0  0  0  0  0  0  0  0  0
    1.0262   -0.1701    0.0000 C   0  0  0  0  0  0  0  0  0  0  0  0
  1  2  1  0  0  0  0
  2  3  1  0  0  0  0
  2 24  1  0  0  0  0
  3  4  2  0  0  0  0
  4  5  1  0  0  0  0
  4  6  1  0  0  0  0
  6  7  1  0  0  0  0
  6 24  2  0  0  0  0
  7  8  2  0  0  0  0
  8  9  1  0  0  0  0
  9 10  1  0  0  0  0
 10 11  1  0  0  0  0
 11 12  2  0  0  0  0
 11 16  1  0  0  0  0
 12 13  1  0  0  0  0
 13 14  2  0  0  0  0
 14 15  1  0  0  0  0
 14 17  1  0  0  0  0
 15 16  2  0  0  0  0
 17 18  2  0  0  0  0
 17 19  1  0  0  0  0
 19 20  1  0  0  0  0
 20 21  1  0  0  0  0
 20 22  1  0  0  0  0
 20 23  1  0  0  0  0
 24 25  1  0  0  0  0
 25 26  1  0  0  0  0
 26 27  2  0  0  0  0
 26 31  1  0  0  0  0
 27 28  1  0  0  0  0
 28 29  2  0  0  0  0
 29 30  1  0  0  0  0
 30 31  2  0  0  0  0
M  END
$$$$
dodecylbenzene
 OpenBabel03171423152D

 18 18  0  0  0  0  0  0  0  0999 V2000
    3.5724   -7.8375    0.0000 C   0  0  0  0  0  0  0  0  0  0  0  0
    4.2868   -7.4250    0.0000 C   0  0  0  0  0  0  0  0  0  0  0  0
    5.0013   -7.8375    0.0000 C   0  0  0  0  0  0  0  0  0  0  0  0
    5.7158   -7.4250    0.0000 C   0  0  0  0  0  0  0  0  0  0  0  0
    6.4302   -7.8375    0.0000 C   0  0  0  0  0  0  0  0  0  0  0  0
    7.1447   -7.4250    0.0000 C   0  0  0  0  0  0  0  0  0  0  0  0
    7.8592   -7.8375    0.0000 C   0  0  0  0  0  0  0  0  0  0  0  0
    8.5737   -7.4250    0.0000 C   0  0  0  0  0  0  0  0  0  0  0  0
    9.2881   -7.8375    0.0000 C   0  0  0  0  0  0  0  0  0  0  0  0
   10.0026   -7.4250    0.0000 C   0  0  0  0  0  0  0  0  0  0  0  0
   10.7171   -7.8375    0.0000 C   0  0  0  0  0  0  0  0  0  0  0  0
   11.4315   -7.4250    0.0000 C   0  0  0  0  0  0  0  0  0  0  0  0
   12.1460   -7.8375    0.0000 C   0  0  0  0  0  0  0  0  0  0  0  0
   12.8605   -7.4250    0.0000 C   0  0  0  0  0  0  0  0  0  0  0  0
   13.5749   -7.8375    0.0000 C   0  0  0  0  0  0  0  0  0  0  0  0
   13.5749   -8.6625    0.0000 C   0  0  0  0  0  0  0  0  0  0  0  0
   12.8605   -9.0750    0.0000 C   0  0  0  0  0  0  0  0  0  0  0  0
   12.1460   -8.6625    0.0000 C   0  0  0  0  0  0  0  0  0  0  0  0
  1  2  1  0  0  0  0
  2  3  1  0  0  0  0
  3  4  1  0  0  0  0
  4  5  1  0  0  0  0
  5  6  1  0  0  0  0
  6  7  1  0  0  0  0
  7  8  1  0  0  0  0
  8  9  1  0  0  0  0
  9 10  1  0  0  0  0
 10 11  1  0  0  0  0
 11 12  1  0  0  0  0
 12 13  1  0  0  0  0
 13 14  2  0  0  0  0
 13 18  1  0  0  0  0
 14 15  1  0  0  0  0
 15 16  2  0  0  0  0
 16 17  1  0  0  0  0
 17 18  2  0  0  0  0
M  END
$$$$
Clothianidin
 OpenBabel03171423152D

 15 15  0  0  0  0  0  0  0  0999 V2000
    0.5678    4.4143    0.0000 C   0  0  0  0  0  0  0  0  0  0  0  0
    0.5678    3.5893    0.0000 N   0  0  0  0  0  0  0  0  0  0  0  0
    1.2822    3.1768    0.0000 C   0  0  0  0  0  0  0  0  0  0  0  0
    1.2822    2.3518    0.0000 N   0  0  0  0  0  0  0  0  0  0  0  0
    0.5678    1.9393    0.0000 C   0  0  0  0  0  0  0  0  0  0  0  0
    0.5678    1.1143    0.0000 C   0  0  0  0  0  0  0  0  0  0  0  0
    1.2352    0.6294    0.0000 C   0  0  0  0  0  0  0  0  0  0  0  0
    0.9803   -0.1553    0.0000 N   0  0  0  0  0  0  0  0  0  0  0  0
    0.1553   -0.1553    0.0000 C   0  0  0  0  0  0  0  0  0  0  0  0
   -0.3297   -0.8227    0.0000 Cl  0  0  0  0  0  0  0  0  0  0  0  0
   -0.0997    0.6294    0.0000 S   0  0  0  0  0  0  0  0  0  0  0  0
    1.9967    3.5893    0.0000 N   0  0  0  0  0  0  0  0  0  0  0  0
    1.9967    4.4143    0.0000 N   0  0  0  0  0  0  0  0  0  0  0  0
    1.2822    4.8268    0.0000 O   0  0  0  0  0  0  0  0  0  0  0  0
    2.7112    4.8268    0.0000 O   0  0  0  0  0  0  0  0  0  0  0  0
  1  2  1  0  0  0  0
  2  3  1  0  0  0  0
  3  4  1  0  0  0  0
  3 12  2  3  0  0  0
  4  5  1  0  0  0  0
  5  6  1  0  0  0  0
  6  7  2  0  0  0  0
  6 11  1  0  0  0  0
  7  8  1  0  0  0  0
  8  9  2  0  0  0  0
  9 10  1  0  0  0  0
  9 11  1  0  0  0  0
 12 13  1  0  0  0  0
 13 14  2  0  0  0  0
 13 15  2  0  0  0  0
M  END
>  <type>
common

$$$$
Phorate
 OpenBabel03171423152D

 13 12  0  0  0  0  0  0  0  0999 V2000
    5.3625   -2.1434    0.0000 C   0  0  0  0  0  0  0  0  0  0  0  0
    4.5375   -2.1434    0.0000 C   0  0  0  0  0  0  0  0  0  0  0  0
    4.1250   -1.4289    0.0000 O   0  0  0  0  0  0  0  0  0  0  0  0
    3.3000   -1.4289    0.0000 P   0  0  0  0  0  0  0  0  0  0  0  0
    3.3000   -0.6039    0.0000 S   0  0  0  0  0  0  0  0  0  0  0  0
    3.3000   -2.2539    0.0000 O   0  0  0  0  0  0  0  0  0  0  0  0
    2.5855   -2.6664    0.0000 C   0  0  0  0  0  0  0  0  0  0  0  0
    1.8711   -2.2539    0.0000 C   0  0  0  0  0  0  0  0  0  0  0  0
    2.4750   -1.4289    0.0000 S   0  0  0  0  0  0  0  0  0  0  0  0
    2.0625   -0.7145    0.0000 C   0  0  0  0  0  0  0  0  0  0  0  0
    1.2375   -0.7145    0.0000 S   0  0  0  0  0  0  0  0  0  0  0  0
    0.8250    0.0000    0.0000 C   0  0  0  0  0  0  0  0  0  0  0  0
    0.0000    0.0000    0.0000 C   0  0  0  0  0  0  0  0  0  0  0  0
  1  2  1  0  0  0  0
  2  3  1  0  0  0  0
  3  4  1  0  0  0  0
  4  5  2  0  0  0  0
  4  6  1  0  0  0  0
  4  9  1  0  0  0  0
  6  7  1  0  0  0  0
  7  8  1  0  0  0  0
  9 10  1  0  0  0  0
 10 11  1  0  0  0  0
 11 12  1  0  0  0  0
 12 13  1  0  0  0  0
M  END
$$$$
marmer
 OpenBabel03171423152D

 14 14  0  0  0  0  0  0  0  0999 V2000
   -0.7145    3.7125    0.0000 C   0  0  0  0  0  0  0  0  0  0  0  0
    0.0000    3.3000    0.0000 N   0  0  0  0  0  0  0  0  0  0  0  0
    0.7145    3.7125    0.0000 C   0  0  0  0  0  0  0  0  0  0  0  0
    0.0000    2.4750    0.0000 C   0  0  0  0  0  0  0  0  0  0  0  0
   -0.7145    2.0625    0.0000 O   0  0  0  0  0  0  0  0  0  0  0  0
    0.7145    2.0625    0.0000 N   0  0  0  0  0  0  0  0  0  0  0  0
    0.7145    1.2375    0.0000 C   0  0  0  0  0  0  0  0  0  0  0  0
    1.4289    0.8250    0.0000 C   0  0  0  0  0  0  0  0  0  0  0  0
    1.4289   -0.0000    0.0000 C   0  0  0  0  0  0  0  0  0  0  0  0
    2.1434   -0.4125    0.0000 Cl  0  0  0  0  0  0  0  0  0  0  0  0
    0.7145   -0.4125    0.0000 C   0  0  0  0  0  0  0  0  0  0  0  0
    0.7145   -1.2375    0.0000 Cl  0  0  0  0  0  0  0  0  0  0  0  0
    0.0000    0.0000    0.0000 C   0  0  0  0  0  0  0  0  0  0  0  0
    0.0000    0.8250    0.0000 C   0  0  0  0  0  0  0  0  0  0  0  0
  1  2  1  0  0  0  0
  2  3  1  0  0  0  0
  2  4  1  0  0  0  0
  4  5  2  0  0  0  0
  4  6  1  0  0  0  0
  6  7  1  0  0  0  0
  7  8  2  0  0  0  0
  7 14  1  0  0  0  0
  8  9  1  0  0  0  0
  9 10  1  0  0  0  0
  9 11  2  0  0  0  0
 11 12  1  0  0  0  0
 11 13  1  0  0  0  0
 13 14  2  0  0  0  0
M  END
$$$$
metolachlor
 OpenBabel03171423152D

 19 19  0  0  0  0  0  0  0  0999 V2000
    5.3329   -2.0329    0.0000 C   0  0  0  0  0  0  0  0  0  0  0  0
    4.9204   -1.3184    0.0000 C   0  0  0  0  0  0  0  0  0  0  0  0
    4.0954   -1.3184    0.0000 C   0  0  0  0  0  0  0  0  0  0  0  0
    3.6829   -2.0329    0.0000 C   0  0  0  0  0  0  0  0  0  0  0  0
    2.8579   -2.0329    0.0000 C   0  0  0  0  0  0  0  0  0  0  0  0
    2.4454   -1.3184    0.0000 C   0  0  0  0  0  0  0  0  0  0  0  0
    2.8579   -0.6039    0.0000 C   0  0  0  0  0  0  0  0  0  0  0  0
    2.4454    0.1105    0.0000 C   0  0  0  0  0  0  0  0  0  0  0  0
    3.6829   -0.6039    0.0000 C   0  0  0  0  0  0  0  0  0  0  0  0
    4.0954    0.1105    0.0000 N   0  0  0  0  0  0  0  0  0  0  0  0
    3.6829    0.8250    0.0000 C   0  0  3  0  0  0  0  0  0  0  0  0
    4.0954    1.5395    0.0000 C   0  0  0  0  0  0  0  0  0  0  0  0
    2.8579    0.8250    0.0000 C   0  0  0  0  0  0  0  0  0  0  0  0
    2.4454    1.5395    0.0000 O   0  0  0  0  0  0  0  0  0  0  0  0
    1.6204    1.5395    0.0000 C   0  0  0  0  0  0  0  0  0  0  0  0
    4.9204    0.1105    0.0000 C   0  0  0  0  0  0  0  0  0  0  0  0
    5.3329   -0.6039    0.0000 O   0  0  0  0  0  0  0  0  0  0  0  0
    5.3329    0.8250    0.0000 C   0  0  0  0  0  0  0  0  0  0  0  0
    6.1579    0.8250    0.0000 Cl  0  0  0  0  0  0  0  0  0  0  0  0
  1  2  1  0  0  0  0
  2  3  1  0  0  0  0
  3  4  2  0  0  0  0
  3  9  1  0  0  0  0
  4  5  1  0  0  0  0
  5  6  2  0  0  0  0
  6  7  1  0  0  0  0
  7  8  1  0  0  0  0
  7  9  2  0  0  0  0
  9 10  1  0  0  0  0
 10 11  1  0  0  0  0
 10 16  1  0  0  0  0
 11 12  1  0  0  0  0
 11 13  1  0  0  0  0
 13 14  1  0  0  0  0
 14 15  1  0  0  0  0
 16 17  2  0  0  0  0
 16 18  1  0  0  0  0
 18 19  1  0  0  0  0
M  END
$$$$
Dipotassium salt
 OpenBabel03171423152D

  1  0  0  0  0  0  0  0  0  0999 V2000
    0.0000    0.0000    0.0000 K   0  3  0  0  0 15  0  0  0  0  0  0
M  CHG  1   1   1
M  END
$$$$
Ethylone
 OpenBabel03171423152D

  3  2  0  0  0  0  0  0  0  0999 V2000
    1.2375   -0.7145    0.0000 C   0  0  0  0  0  0  0  0  0  0  0  0
    1.9520   -1.1270    0.0000 C   0  0  0  0  0  0  0  0  0  0  0  0
    2.6664   -0.7145    0.0000 O   0  0  0  0  0  0  0  0  0  0  0  0
  1  2  1  0  0  0  0
  2  3  2  0  0  0  0
M  END
$$$$
fluazifop-P-butyl
 OpenBabel03171423152D

 27 28  0  0  0  0  0  0  0  0999 V2000
   -5.0013   -7.0125    0.0000 C   0  0  0  0  0  0  0  0  0  0  0  0
   -4.2868   -6.6000    0.0000 C   0  0  0  0  0  0  0  0  0  0  0  0
   -3.5724   -7.0125    0.0000 C   0  0  0  0  0  0  0  0  0  0  0  0
   -2.8579   -6.6000    0.0000 C   0  0  0  0  0  0  0  0  0  0  0  0
   -2.1434   -7.0125    0.0000 O   0  0  0  0  0  0  0  0  0  0  0  0
   -1.4289   -6.6000    0.0000 C   0  0  0  0  0  0  0  0  0  0  0  0
   -1.4289   -5.7750    0.0000 O   0  0  0  0  0  0  0  0  0  0  0  0
   -0.7145   -7.0125    0.0000 C   0  0  3  0  0  0  0  0  0  0  0  0
   -0.7145   -7.8375    0.0000 C   0  0  0  0  0  0  0  0  0  0  0  0
    0.0000   -6.6000    0.0000 O   0  0  0  0  0  0  0  0  0  0  0  0
    0.7145   -7.0125    0.0000 C   0  0  0  0  0  0  0  0  0  0  0  0
    1.4289   -6.6000    0.0000 C   0  0  0  0  0  0  0  0  0  0  0  0
    2.1434   -7.0125    0.0000 C   0  0  0  0  0  0  0  0  0  0  0  0
    2.1434   -7.8375    0.0000 C   0  0  0  0  0  0  0  0  0  0  0  0
    2.8579   -8.2500    0.0000 O   0  0  0  0  0  0  0  0  0  0  0  0
    3.5724   -7.8375    0.0000 C   0  0  0  0  0  0  0  0  0  0  0  0
    3.5724   -7.0125    0.0000 C   0  0  0  0  0  0  0  0  0  0  0  0
    4.2868   -6.6000    0.0000 C   0  0  0  0  0  0  0  0  0  0  0  0
    5.0013   -7.0125    0.0000 C   0  0  0  0  0  0  0  0  0  0  0  0
    5.0013   -7.8375    0.0000 C   0  0  0  0  0  0  0  0  0  0  0  0
    4.2868   -8.2500    0.0000 N   0  0  0  0  0  0  0  0  0  0  0  0
    5.7158   -6.6000    0.0000 C   0  0  0  0  0  0  0  0  0  0  0  0
    6.4302   -6.1875    0.0000 F   0  0  0  0  0  0  0  0  0  0  0  0
    6.1283   -7.3145    0.0000 F   0  0  0  0  0  0  0  0  0  0  0  0
    5.3033   -5.8855    0.0000 F   0  0  0  0  0  0  0  0  0  0  0  0
    1.4289   -8.2500    0.0000 C   0  0  0  0  0  0  0  0  0  0  0  0
    0.7145   -7.8375    0.0000 C   0  0  0  0  0  0  0  0  0  0  0  0
  1  2  1  0  0  0  0
  2  3  1  0  0  0  0
  3  4  1  0  0  0  0
  4  5  1  0  0  0  0
  5  6  1  0  0  0  0
  6  7  2  0  0  0  0
  6  8  1  0  0  0  0
  8  9  1  0  0  0  0
  8 10  1  0  0  0  0
 10 11  1  0  0  0  0
 11 12  2  0  0  0  0
 11 27  1  0  0  0  0
 12 13  1  0  0  0  0
 13 14  2  0  0  0  0
 14 15  1  0  0  0  0
 14 26  1  0  0  0  0
 15 16  1  0  0  0  0
 16 17  2  0  0  0  0
 16 21  1  0  0  0  0
 17 18  1  0  0  0  0
 18 19  2  0  0  0  0
 19 20  1  0  0  0  0
 19 22  1  0  0  0  0
 20 21  2  0  0  0  0
 22 23  1  0  0  0  0
 22 24  1  0  0  0  0
 22 25  1  0  0  0  0
 26 27  2  0  0  0  0
M  END
$$$$
Ethene
 OpenBabel03171423152D

  2  1  0  0  0  0  0  0  0  0999 V2000
    0.8250    0.0000    0.0000 C   0  0  0  0  0  0  0  0  0  0  0  0
    0.0000    0.0000    0.0000 C   0  0  0  0  0  0  0  0  0  0  0  0
  1  2  2  0  0  0  0
M  END
$$$$
Propamocarb
 OpenBabel03171423152D

 13 12  0  0  0  0  0  0  0  0999 V2000
    4.2355    3.2704    0.0000 C   0  0  0  0  0  0  0  0  0  0  0  0
    4.9500    2.8579    0.0000 C   0  0  0  0  0  0  0  0  0  0  0  0
    5.6645    3.2704    0.0000 C   0  0  0  0  0  0  0  0  0  0  0  0
    6.3789    2.8579    0.0000 O   0  0  0  0  0  0  0  0  0  0  0  0
    7.0934    3.2704    0.0000 C   0  0  0  0  0  0  0  0  0  0  0  0
    7.0934    4.0954    0.0000 O   0  0  0  0  0  0  0  0  0  0  0  0
    7.8079    2.8579    0.0000 N   0  0  0  0  0  0  0  0  0  0  0  0
    8.5224    3.2704    0.0000 C   0  0  0  0  0  0  0  0  0  0  0  0
    9.2368    2.8579    0.0000 C   0  0  0  0  0  0  0  0  0  0  0  0
    9.9513    3.2704    0.0000 C   0  0  0  0  0  0  0  0  0  0  0  0
   10.6658    2.8579    0.0000 N   0  0  0  0  0  0  0  0  0  0  0  0
   11.3802    3.2704    0.0000 C   0  0  0  0  0  0  0  0  0  0  0  0
   10.6658    2.0329    0.0000 C   0  0  0  0  0  0  0  0  0  0  0  0
  1  2  1  0  0  0  0
  2  3  1  0  0  0  0
  3  4  1  0  0  0  0
  4  5  1  0  0  0  0
  5  6  2  0  0  0  0
  5  7  1  0  0  0  0
  7  8  1  0  0  0  0
  8  9  1  0  0  0  0
  9 10  1  0  0  0  0
 10 11  1  0  0  0  0
 11 12  1  0  0  0  0
 11 13  1  0  0  0  0
M  END
$$$$
DPA
 OpenBabel03171423152D

 13 14  0  0  0  0  0  0  0  0999 V2000
    2.1434   -2.8875    0.0000 C   0  0  0  0  0  0  0  0  0  0  0  0
    1.4289   -2.4750    0.0000 C   0  0  0  0  0  0  0  0  0  0  0  0
    1.4289   -1.6500    0.0000 C   0  0  0  0  0  0  0  0  0  0  0  0
    2.1434   -1.2375    0.0000 C   0  0  0  0  0  0  0  0  0  0  0  0
    2.8579   -1.6500    0.0000 C   0  0  0  0  0  0  0  0  0  0  0  0
    2.8579   -2.4750    0.0000 C   0  0  0  0  0  0  0  0  0  0  0  0
    2.1434   -0.4125    0.0000 N   0  0  0  0  0  0  0  0  0  0  0  0
    2.8579    0.0000    0.0000 C   0  0  0  0  0  0  0  0  0  0  0  0
    2.8579    0.8250    0.0000 C   0  0  0  0  0  0  0  0  0  0  0  0
    3.5724    1.2375    0.0000 C   0  0  0  0  0  0  0  0  0  0  0  0
    4.2868    0.8250    0.0000 C   0  0  0  0  0  0  0  0  0  0  0  0
    4.2868    0.0000    0.0000 C   0  0  0  0  0  0  0  0  0  0  0  0
    3.5724   -0.4125    0.0000 C   0  0  0  0  0  0  0  0  0  0  0  0
  1  2  2  0  0  0  0
  1  6  1  0  0  0  0
  2  3  1  0  0  0  0
  3  4  2  0  0  0  0
  4  5  1  0  0  0  0
  4  7  1  0  0  0  0
  5  6  2  0  0  0  0
  7  8  1  0  0  0  0
  8  9  2  0  0  0  0
  8 13  1  0  0  0  0
  9 10  1  0  0  0  0
 10 11  2  0  0  0  0
 11 12  1  0  0  0  0
 12 13  2  0  0  0  0
M  END
$$$$
Propan-1,2-diol
 OpenBabel03171423152D

  5  4  0  0  0  0  0  0  0  0999 V2000
    2.0625   -0.7145    0.0000 C   0  0  0  0  0  0  0  0  0  0  0  0
    1.2375   -0.7145    0.0000 C   0  0  3  0  0  0  0  0  0  0  0  0
    0.8250   -1.4289    0.0000 O   0  0  0  0  0  0  0  0  0  0  0  0
    0.8250    0.0000    0.0000 C   0  0  0  0  0  0  0  0  0  0  0  0
    0.0000    0.0000    0.0000 O   0  0  0  0  0  0  0  0  0  0  0  0
  1  2  1  0  0  0  0
  2  3  1  0  0  0  0
  2  4  1  0  0  0  0
  4  5  1  0  0  0  0
M  END
$$$$
dibrom nitrilopropionamide
 OpenBabel03171423152D

  8  7  0  0  0  0  0  0  0  0999 V2000
    2.8875   -0.7145    0.0000 N   0  0  0  0  0  0  0  0  0  0  0  0
    2.4750   -0.0000    0.0000 C   0  0  0  0  0  0  0  0  0  0  0  0
    2.8875    0.7145    0.0000 O   0  0  0  0  0  0  0  0  0  0  0  0
    1.6500   -0.0000    0.0000 C   0  0  0  0  0  0  0  0  0  0  0  0
    1.6500    0.8250    0.0000 Br  0  0  0  0  0  0  0  0  0  0  0  0
    1.6500   -0.8250    0.0000 Br  0  0  0  0  0  0  0  0  0  0  0  0
    0.8250    0.0000    0.0000 C   0  0  0  0  0  0  0  0  0  0  0  0
    0.0000    0.0000    0.0000 N   0  0  0  0  0  0  0  0  0  0  0  0
  1  2  1  0  0  0  0
  2  3  2  0  0  0  0
  2  4  1  0  0  0  0
  4  5  1  0  0  0  0
  4  6  1  0  0  0  0
  4  7  1  0  0  0  0
  7  8  3  0  0  0  0
M  END
$$$$
Coumaphos
 OpenBabel03171423152D

 22 23  0  0  0  0  0  0  0  0999 V2000
   -4.2868   -0.8250    0.0000 C   0  0  0  0  0  0  0  0  0  0  0  0
   -3.5724   -1.2375    0.0000 C   0  0  0  0  0  0  0  0  0  0  0  0
   -2.8579   -0.8250    0.0000 O   0  0  0  0  0  0  0  0  0  0  0  0
   -2.1434   -1.2375    0.0000 P   0  0  0  0  0  0  0  0  0  0  0  0
   -2.5559   -1.9520    0.0000 S   0  0  0  0  0  0  0  0  0  0  0  0
   -1.7309   -0.5230    0.0000 O   0  0  0  0  0  0  0  0  0  0  0  0
   -2.1434    0.1914    0.0000 C   0  0  0  0  0  0  0  0  0  0  0  0
   -1.7309    0.9059    0.0000 C   0  0  0  0  0  0  0  0  0  0  0  0
   -1.4289   -1.6500    0.0000 O   0  0  0  0  0  0  0  0  0  0  0  0
   -0.7145   -1.2375    0.0000 C   0  0  0  0  0  0  0  0  0  0  0  0
    0.0000   -1.6500    0.0000 C   0  0  0  0  0  0  0  0  0  0  0  0
    0.7145   -1.2375    0.0000 C   0  0  0  0  0  0  0  0  0  0  0  0
    0.7145   -0.4125    0.0000 C   0  0  0  0  0  0  0  0  0  0  0  0
    0.0000   -0.0000    0.0000 C   0  0  0  0  0  0  0  0  0  0  0  0
   -0.7145   -0.4125    0.0000 C   0  0  0  0  0  0  0  0  0  0  0  0
    1.4289   -0.0000    0.0000 C   0  0  0  0  0  0  0  0  0  0  0  0
    1.4289    0.8250    0.0000 C   0  0  0  0  0  0  0  0  0  0  0  0
    2.1434   -0.4125    0.0000 C   0  0  0  0  0  0  0  0  0  0  0  0
    2.8579   -0.0000    0.0000 Cl  0  0  0  0  0  0  0  0  0  0  0  0
    2.1434   -1.2375    0.0000 C   0  0  0  0  0  0  0  0  0  0  0  0
    2.8579   -1.6500    0.0000 O   0  0  0  0  0  0  0  0  0  0  0  0
    1.4289   -1.6500    0.0000 O   0  0  0  0  0  0  0  0  0  0  0  0
  1  2  1  0  0  0  0
  2  3  1  0  0  0  0
  3  4  1  0  0  0  0
  4  5  2  0  0  0  0
  4  6  1  0  0  0  0
  4  9  1  0  0  0  0
  6  7  1  0  0  0  0
  7  8  1  0  0  0  0
  9 10  1  0  0  0  0
 10 11  2  0  0  0  0
 10 15  1  0  0  0  0
 11 12  1  0  0  0  0
 12 13  2  0  0  0  0
 12 22  1  0  0  0  0
 13 14  1  0  0  0  0
 13 16  1  0  0  0  0
 14 15  2  0  0  0  0
 16 17  1  0  0  0  0
 16 18  2  0  0  0  0
 18 19  1  0  0  0  0
 18 20  1  0  0  0  0
 20 21  2  0  0  0  0
 20 22  1  0  0  0  0
M  END
$$$$
10 phosphate potassium salt
 OpenBabel03171423152D

  6  4  0  0  0  0  0  0  0  0999 V2000
    0.0000    0.0000    0.0000 K   0  3  0  0  0 15  0  0  0  0  0  0
    2.8286   -0.8250    0.0000 O   0  5  0  0  0  0  0  0  0  0  0  0
    2.8286    0.0000    0.0000 P   0  0  0  0  0  0  0  0  0  0  0  0
    2.8286    0.8250    0.0000 O   0  5  0  0  0  0  0  0  0  0  0  0
    3.6536   -0.0000    0.0000 O   0  5  0  0  0  0  0  0  0  0  0  0
    2.0036    0.0000    0.0000 O   0  0  0  0  0  0  0  0  0  0  0  0
  2  3  1  0  0  0  0
  3  4  1  0  0  0  0
  3  5  1  0  0  0  0
  3  6  2  0  0  0  0
M  CHG  4   1   1   2  -1   4  -1   5  -1
M  END
$$$$
Methyl 2,5-dichlorobenzoate [2905-69-3]
 OpenBabel03171423152D

 12 12  0  0  0  0  0  0  0  0999 V2000
    0.7145    1.2375    0.0000 C   0  0  0  0  0  0  0  0  0  0  0  0
    0.7145    2.0625    0.0000 C   0  0  0  0  0  0  0  0  0  0  0  0
    1.4289    2.4750    0.0000 O   0  0  0  0  0  0  0  0  0  0  0  0
    0.0000    2.4750    0.0000 O   0  0  0  0  0  0  0  0  0  0  0  0
    1.4289    0.8250    0.0000 C   0  0  0  0  0  0  0  0  0  0  0  0
    1.4289   -0.0000    0.0000 C   0  0  0  0  0  0  0  0  0  0  0  0
    0.7145   -0.4125    0.0000 C   0  0  0  0  0  0  0  0  0  0  0  0
    0.0000    0.0000    0.0000 C   0  0  0  0  0  0  0  0  0  0  0  0
    0.0000    0.8250    0.0000 C   0  0  0  0  0  0  0  0  0  0  0  0
    2.1434    1.2375    0.0000 Cl  0  0  0  0  0  0  0  0  0  0  0  0
   -0.7145   -0.4125    0.0000 Cl  0  0  0  0  0  0  0  0  0  0  0  0
    1.4289    3.3000    0.0000 C   0  0  0  0  0  0  0  0  0  0  0  0
  1  2  1  0  0  0  0
  1  5  2  0  0  0  0
  1  9  1  0  0  0  0
  2  3  1  0  0  0  0
  2  4  2  0  0  0  0
  3 12  1  0  0  0  0
  5  6  1  0  0  0  0
  5 10  1  0  0  0  0
  6  7  2  0  0  0  0
  7  8  1  0  0  0  0
  8  9  2  0  0  0  0
  8 11  1  0  0  0  0
M  END
>  <type>
systematic

$$$$
acibenzolar-S-methyl
 OpenBabel03171423152D

 13 14  0  0  0  0  0  0  0  0999 V2000
    1.4289   -2.4750    0.0000 C   0  0  0  0  0  0  0  0  0  0  0  0
    1.4289   -1.6500    0.0000 S   0  0  0  0  0  0  0  0  0  0  0  0
    0.7145   -1.2375    0.0000 C   0  0  0  0  0  0  0  0  0  0  0  0
    0.0000   -1.6500    0.0000 O   0  0  0  0  0  0  0  0  0  0  0  0
    0.7145   -0.4125    0.0000 C   0  0  0  0  0  0  0  0  0  0  0  0
    0.0000    0.0000    0.0000 C   0  0  0  0  0  0  0  0  0  0  0  0
   -0.7846   -0.2549    0.0000 S   0  0  0  0  0  0  0  0  0  0  0  0
   -1.2695    0.4125    0.0000 N   0  0  0  0  0  0  0  0  0  0  0  0
   -0.7846    1.0799    0.0000 N   0  0  0  0  0  0  0  0  0  0  0  0
    0.0000    0.8250    0.0000 C   0  0  0  0  0  0  0  0  0  0  0  0
    0.7145    1.2375    0.0000 C   0  0  0  0  0  0  0  0  0  0  0  0
    1.4289    0.8250    0.0000 C   0  0  0  0  0  0  0  0  0  0  0  0
    1.4289    0.0000    0.0000 C   0  0  0  0  0  0  0  0  0  0  0  0
  1  2  1  0  0  0  0
  2  3  1  0  0  0  0
  3  4  2  0  0  0  0
  3  5  1  0  0  0  0
  5  6  2  0  0  0  0
  5 13  1  0  0  0  0
  6  7  1  0  0  0  0
  6 10  1  0  0  0  0
  7  8  1  0  0  0  0
  8  9  2  0  0  0  0
  9 10  1  0  0  0  0
 10 11  2  0  0  0  0
 11 12  1  0  0  0  0
 12 13  2  0  0  0  0
M  END
$$$$
carfentrazone-ethyl
 OpenBabel03171423152D

 26 27  0  0  0  0  0  0  0  0999 V2000
    1.4289   -4.1250    0.0000 C   0  0  0  0  0  0  0  0  0  0  0  0
    2.1434   -3.7125    0.0000 C   0  0  0  0  0  0  0  0  0  0  0  0
    2.8579   -4.1250    0.0000 O   0  0  0  0  0  0  0  0  0  0  0  0
    3.5724   -3.7125    0.0000 C   0  0  0  0  0  0  0  0  0  0  0  0
    3.5724   -2.8875    0.0000 O   0  0  0  0  0  0  0  0  0  0  0  0
    4.2868   -4.1250    0.0000 C   0  0  3  0  0  0  0  0  0  0  0  0
    4.2868   -4.9500    0.0000 Cl  0  0  0  0  0  0  0  0  0  0  0  0
    5.0013   -3.7125    0.0000 C   0  0  0  0  0  0  0  0  0  0  0  0
    5.7158   -4.1250    0.0000 C   0  0  0  0  0  0  0  0  0  0  0  0
    6.4302   -3.7125    0.0000 C   0  0  0  0  0  0  0  0  0  0  0  0
    7.1447   -4.1250    0.0000 C   0  0  0  0  0  0  0  0  0  0  0  0
    7.8592   -3.7125    0.0000 N   0  0  0  0  0  0  0  0  0  0  0  0
    7.9454   -2.8920    0.0000 N   0  0  0  0  0  0  0  0  0  0  0  0
    8.7524   -2.7205    0.0000 C   0  0  0  0  0  0  0  0  0  0  0  0
    9.0879   -1.9668    0.0000 C   0  0  0  0  0  0  0  0  0  0  0  0
    9.1649   -3.4350    0.0000 N   0  0  0  0  0  0  0  0  0  0  0  0
    9.9854   -3.5212    0.0000 C   0  0  0  0  0  0  0  0  0  0  0  0
   10.4703   -2.8538    0.0000 F   0  0  0  0  0  0  0  0  0  0  0  0
   10.3209   -4.2749    0.0000 F   0  0  0  0  0  0  0  0  0  0  0  0
    8.6129   -4.0481    0.0000 C   0  0  0  0  0  0  0  0  0  0  0  0
    8.7844   -4.8550    0.0000 O   0  0  0  0  0  0  0  0  0  0  0  0
    7.1447   -4.9500    0.0000 C   0  0  0  0  0  0  0  0  0  0  0  0
    7.8592   -5.3625    0.0000 F   0  0  0  0  0  0  0  0  0  0  0  0
    6.4302   -5.3625    0.0000 C   0  0  0  0  0  0  0  0  0  0  0  0
    5.7158   -4.9500    0.0000 C   0  0  0  0  0  0  0  0  0  0  0  0
    5.0013   -5.3625    0.0000 Cl  0  0  0  0  0  0  0  0  0  0  0  0
  1  2  1  0  0  0  0
  2  3  1  0  0  0  0
  3  4  1  0  0  0  0
  4  5  2  0  0  0  0
  4  6  1  0  0  0  0
  6  7  1  0  0  0  0
  6  8  1  0  0  0  0
  8  9  1  0  0  0  0
  9 10  2  0  0  0  0
  9 25  1  0  0  0  0
 10 11  1  0  0  0  0
 11 12  1  0  0  0  0
 11 22  2  0  0  0  0
 12 13  1  0  0  0  0
 12 20  1  0  0  0  0
 13 14  2  0  0  0  0
 14 15  1  0  0  0  0
 14 16  1  0  0  0  0
 16 17  1  0  0  0  0
 16 20  1  0  0  0  0
 17 18  1  0  0  0  0
 17 19  1  0  0  0  0
 20 21  2  0  0  0  0
 22 23  1  0  0  0  0
 22 24  1  0  0  0  0
 24 25  2  0  0  0  0
 25 26  1  0  0  0  0
M  END
$$$$
potassium nitrate
 OpenBabel03171423152D

  5  3  0  0  0  0  0  0  0  0999 V2000
    0.0000    0.0000    0.0000 K   0  3  0  0  0 15  0  0  0  0  0  0
    3.2411    0.7145    0.0000 O   0  5  0  0  0  0  0  0  0  0  0  0
    2.8286   -0.0000    0.0000 N   0  3  0  0  0  0  0  0  0  0  0  0
    3.2411   -0.7145    0.0000 O   0  5  0  0  0  0  0  0  0  0  0  0
    2.0036   -0.0000    0.0000 O   0  0  0  0  0  0  0  0  0  0  0  0
  2  3  1  0  0  0  0
  3  4  1  0  0  0  0
  3  5  2  0  0  0  0
M  CHG  4   1   1   2  -1   3   1   4  -1
M  END
$$$$
p-Chloro-o-benzylphenol
 OpenBabel03171423152D

 15 16  0  0  0  0  0  0  0  0999 V2000
   -0.7145   -0.4125    0.0000 O   0  0  0  0  0  0  0  0  0  0  0  0
   -0.7145   -1.2375    0.0000 C   0  0  0  0  0  0  0  0  0  0  0  0
    0.0000   -1.6500    0.0000 C   0  0  0  0  0  0  0  0  0  0  0  0
    0.7145   -1.2375    0.0000 C   0  0  0  0  0  0  0  0  0  0  0  0
    0.7145   -0.4125    0.0000 C   0  0  0  0  0  0  0  0  0  0  0  0
    0.0000   -0.0000    0.0000 C   0  0  0  0  0  0  0  0  0  0  0  0
    0.0000    0.8250    0.0000 C   0  0  0  0  0  0  0  0  0  0  0  0
    0.7145    1.2375    0.0000 C   0  0  0  0  0  0  0  0  0  0  0  0
    1.4289    0.8250    0.0000 C   0  0  0  0  0  0  0  0  0  0  0  0
    1.4289   -0.0000    0.0000 C   0  0  0  0  0  0  0  0  0  0  0  0
    0.0000   -2.4750    0.0000 C   0  0  0  0  0  0  0  0  0  0  0  0
   -0.7145   -2.8875    0.0000 C   0  0  0  0  0  0  0  0  0  0  0  0
   -0.7145   -3.7125    0.0000 Cl  0  0  0  0  0  0  0  0  0  0  0  0
   -1.4289   -2.4750    0.0000 C   0  0  0  0  0  0  0  0  0  0  0  0
   -1.4289   -1.6500    0.0000 C   0  0  0  0  0  0  0  0  0  0  0  0
  1  2  1  0  0  0  0
  2  3  2  0  0  0  0
  2 15  1  0  0  0  0
  3  4  1  0  0  0  0
  3 11  1  0  0  0  0
  4  5  1  0  0  0  0
  5  6  2  0  0  0  0
  5 10  1  0  0  0  0
  6  7  1  0  0  0  0
  7  8  2  0  0  0  0
  8  9  1  0  0  0  0
  9 10  2  0  0  0  0
 11 12  2  0  0  0  0
 12 13  1  0  0  0  0
 12 14  1  0  0  0  0
 14 15  2  0  0  0  0
M  END
$$$$
Pyraclostrobin
 OpenBabel03171423152D

 27 29  0  0  0  0  0  0  0  0999 V2000
    1.5382   -4.1980    0.0000 C   0  0  0  0  0  0  0  0  0  0  0  0
    0.8237   -4.6105    0.0000 O   0  0  0  0  0  0  0  0  0  0  0  0
    0.8237   -5.4355    0.0000 N   0  0  0  0  0  0  0  0  0  0  0  0
    1.5382   -5.8480    0.0000 C   0  0  0  0  0  0  0  0  0  0  0  0
    1.5382   -6.6730    0.0000 O   0  0  0  0  0  0  0  0  0  0  0  0
    2.2527   -5.4355    0.0000 O   0  0  0  0  0  0  0  0  0  0  0  0
    2.9671   -5.8480    0.0000 C   0  0  0  0  0  0  0  0  0  0  0  0
    0.1093   -5.8480    0.0000 C   0  0  0  0  0  0  0  0  0  0  0  0
    0.1093   -6.6730    0.0000 C   0  0  0  0  0  0  0  0  0  0  0  0
   -0.6052   -7.0855    0.0000 C   0  0  0  0  0  0  0  0  0  0  0  0
   -1.3197   -6.6730    0.0000 C   0  0  0  0  0  0  0  0  0  0  0  0
   -1.3197   -5.8480    0.0000 C   0  0  0  0  0  0  0  0  0  0  0  0
   -0.6052   -5.4355    0.0000 C   0  0  0  0  0  0  0  0  0  0  0  0
   -0.6052   -4.6105    0.0000 C   0  0  0  0  0  0  0  0  0  0  0  0
   -1.3197   -4.1980    0.0000 O   0  0  0  0  0  0  0  0  0  0  0  0
   -1.3197   -3.3730    0.0000 C   0  0  0  0  0  0  0  0  0  0  0  0
   -1.9871   -2.8881    0.0000 N   0  0  0  0  0  0  0  0  0  0  0  0
   -1.7322   -2.1035    0.0000 N   0  0  0  0  0  0  0  0  0  0  0  0
   -0.9072   -2.1035    0.0000 C   0  0  0  0  0  0  0  0  0  0  0  0
   -0.6523   -2.8881    0.0000 C   0  0  0  0  0  0  0  0  0  0  0  0
   -2.2171   -1.4360    0.0000 C   0  0  0  0  0  0  0  0  0  0  0  0
   -3.0376   -1.5223    0.0000 C   0  0  0  0  0  0  0  0  0  0  0  0
   -3.5225   -0.8548    0.0000 C   0  0  0  0  0  0  0  0  0  0  0  0
   -3.1870   -0.1011    0.0000 C   0  0  0  0  0  0  0  0  0  0  0  0
   -3.6719    0.5663    0.0000 Cl  0  0  0  0  0  0  0  0  0  0  0  0
   -2.3665   -0.0149    0.0000 C   0  0  0  0  0  0  0  0  0  0  0  0
   -1.8816   -0.6824    0.0000 C   0  0  0  0  0  0  0  0  0  0  0  0
  1  2  1  0  0  0  0
  2  3  1  0  0  0  0
  3  4  1  0  0  0  0
  3  8  1  0  0  0  0
  4  5  2  0  0  0  0
  4  6  1  0  0  0  0
  6  7  1  0  0  0  0
  8  9  2  0  0  0  0
  8 13  1  0  0  0  0
  9 10  1  0  0  0  0
 10 11  2  0  0  0  0
 11 12  1  0  0  0  0
 12 13  2  0  0  0  0
 13 14  1  0  0  0  0
 14 15  1  0  0  0  0
 15 16  1  0  0  0  0
 16 17  2  0  0  0  0
 16 20  1  0  0  0  0
 17 18  1  0  0  0  0
 18 19  1  0  0  0  0
 18 21  1  0  0  0  0
 19 20  2  0  0  0  0
 21 22  2  0  0  0  0
 21 27  1  0  0  0  0
 22 23  1  0  0  0  0
 23 24  2  0  0  0  0
 24 25  1  0  0  0  0
 24 26  1  0  0  0  0
 26 27  2  0  0  0  0
M  END
$$$$
Paraquat
 OpenBabel03171423152D

 16 15  0  0  0  0  0  0  0  0999 V2000
    0.0000    0.0000    0.0000 Cl  0  5  0  0  0  0  0  0  0  0  0  0
    1.0018    0.0000    0.0000 Cl  0  5  0  0  0  0  0  0  0  0  0  0
    0.0000   -1.6500    0.0000 C   0  0  0  0  0  0  0  0  0  0  0  0
    0.0000   -2.4750    0.0000 N   0  3  0  0  0  0  0  0  0  0  0  0
    0.7145   -2.8875    0.0000 C   0  0  0  0  0  0  0  0  0  0  0  0
    0.7145   -3.7125    0.0000 C   0  0  0  0  0  0  0  0  0  0  0  0
    0.0000   -4.1250    0.0000 C   0  0  0  0  0  0  0  0  0  0  0  0
   -0.7145   -3.7125    0.0000 C   0  0  0  0  0  0  0  0  0  0  0  0
   -0.7145   -2.8875    0.0000 C   0  0  0  0  0  0  0  0  0  0  0  0
   -0.0000   -4.9500    0.0000 C   0  0  0  0  0  0  0  0  0  0  0  0
    0.7145   -5.3625    0.0000 C   0  0  0  0  0  0  0  0  0  0  0  0
    0.7145   -6.1875    0.0000 C   0  0  0  0  0  0  0  0  0  0  0  0
   -0.0000   -6.6000    0.0000 N   0  3  0  0  0  0  0  0  0  0  0  0
   -0.0000   -7.4250    0.0000 C   0  0  0  0  0  0  0  0  0  0  0  0
   -0.7145   -6.1875    0.0000 C   0  0  0  0  0  0  0  0  0  0  0  0
   -0.7145   -5.3625    0.0000 C   0  0  0  0  0  0  0  0  0  0  0  0
  3  4  1  0  0  0  0
  4  5  2  0  0  0  0
  4  9  1  0  0  0  0
  5  6  1  0  0  0  0
  6  7  2  0  0  0  0
  7  8  1  0  0  0  0
  7 10  1  0  0  0  0
  8  9  2  0  0  0  0
 10 11  2  0  0  0  0
 10 16  1  0  0  0  0
 11 12  1  0  0  0  0
 12 13  2  0  0  0  0
 13 14  1  0  0  0  0
 13 15  1  0  0  0  0
 15 16  2  0  0  0  0
M  CHG  4   1  -1   2  -1   4   1  13   1
M  END
$$$$
brodifacoum
 OpenBabel03171423152D

 35 40  0  0  0  0  0  0  0  0999 V2000
    3.5724   -1.2375    0.0000 O   0  0  0  0  0  0  0  0  0  0  0  0
    3.5724   -0.4125    0.0000 C   0  0  0  0  0  0  0  0  0  0  0  0
    2.8579    0.0000    0.0000 C   0  0  0  0  0  0  0  0  0  0  0  0
    2.1434   -0.4125    0.0000 C   0  0  3  0  0  0  0  0  0  0  0  0
    2.1434   -1.2375    0.0000 C   0  0  0  0  0  0  0  0  0  0  0  0
    1.4289   -1.6500    0.0000 C   0  0  3  0  0  0  0  0  0  0  0  0
    0.7145   -1.2375    0.0000 C   0  0  0  0  0  0  0  0  0  0  0  0
    0.7145   -0.4125    0.0000 C   0  0  0  0  0  0  0  0  0  0  0  0
   -0.0000    0.0000    0.0000 C   0  0  0  0  0  0  0  0  0  0  0  0
    0.0000    0.8250    0.0000 C   0  0  0  0  0  0  0  0  0  0  0  0
    0.7145    1.2375    0.0000 C   0  0  0  0  0  0  0  0  0  0  0  0
    1.4289    0.8250    0.0000 C   0  0  0  0  0  0  0  0  0  0  0  0
    1.4289    0.0000    0.0000 C   0  0  0  0  0  0  0  0  0  0  0  0
    1.4289   -2.4750    0.0000 C   0  0  0  0  0  0  0  0  0  0  0  0
    2.1434   -2.8875    0.0000 C   0  0  0  0  0  0  0  0  0  0  0  0
    2.1434   -3.7125    0.0000 C   0  0  0  0  0  0  0  0  0  0  0  0
    1.4289   -4.1250    0.0000 C   0  0  0  0  0  0  0  0  0  0  0  0
    0.7145   -3.7125    0.0000 C   0  0  0  0  0  0  0  0  0  0  0  0
    0.7145   -2.8875    0.0000 C   0  0  0  0  0  0  0  0  0  0  0  0
    1.4289   -4.9500    0.0000 C   0  0  0  0  0  0  0  0  0  0  0  0
    2.1434   -5.3625    0.0000 C   0  0  0  0  0  0  0  0  0  0  0  0
    2.1434   -6.1875    0.0000 C   0  0  0  0  0  0  0  0  0  0  0  0
    1.4289   -6.6000    0.0000 C   0  0  0  0  0  0  0  0  0  0  0  0
    1.4289   -7.4250    0.0000 Br  0  0  0  0  0  0  0  0  0  0  0  0
    0.7145   -6.1875    0.0000 C   0  0  0  0  0  0  0  0  0  0  0  0
    0.7145   -5.3625    0.0000 C   0  0  0  0  0  0  0  0  0  0  0  0
    2.8579    0.8250    0.0000 C   0  0  0  0  0  0  0  0  0  0  0  0
    2.1434    1.2375    0.0000 O   0  0  0  0  0  0  0  0  0  0  0  0
    3.5724    1.2375    0.0000 O   0  0  0  0  0  0  0  0  0  0  0  0
    4.2868    0.8250    0.0000 C   0  0  0  0  0  0  0  0  0  0  0  0
    5.0013    1.2375    0.0000 C   0  0  0  0  0  0  0  0  0  0  0  0
    5.7158    0.8250    0.0000 C   0  0  0  0  0  0  0  0  0  0  0  0
    5.7158    0.0000    0.0000 C   0  0  0  0  0  0  0  0  0  0  0  0
    5.0013   -0.4125    0.0000 C   0  0  0  0  0  0  0  0  0  0  0  0
    4.2868    0.0000    0.0000 C   0  0  0  0  0  0  0  0  0  0  0  0
  1  2  1  0  0  0  0
  2  3  2  0  0  0  0
  2 35  1  0  0  0  0
  3  4  1  0  0  0  0
  3 27  1  0  0  0  0
  4  5  1  0  0  0  0
  4 13  1  0  0  0  0
  5  6  1  0  0  0  0
  6  7  1  0  0  0  0
  6 14  1  0  0  0  0
  7  8  1  0  0  0  0
  8  9  2  0  0  0  0
  8 13  1  0  0  0  0
  9 10  1  0  0  0  0
 10 11  2  0  0  0  0
 11 12  1  0  0  0  0
 12 13  2  0  0  0  0
 14 15  2  0  0  0  0
 14 19  1  0  0  0  0
 15 16  1  0  0  0  0
 16 17  2  0  0  0  0
 17 18  1  0  0  0  0
 17 20  1  0  0  0  0
 18 19  2  0  0  0  0
 20 21  2  0  0  0  0
 20 26  1  0  0  0  0
 21 22  1  0  0  0  0
 22 23  2  0  0  0  0
 23 24  1  0  0  0  0
 23 25  1  0  0  0  0
 25 26  2  0  0  0  0
 27 28  2  0  0  0  0
 27 29  1  0  0  0  0
 29 30  1  0  0  0  0
 30 31  2  0  0  0  0
 30 35  1  0  0  0  0
 31 32  1  0  0  0  0
 32 33  2  0  0  0  0
 33 34  1  0  0  0  0
 34 35  2  0  0  0  0
M  END
>  <type>
common

$$$$
Salicylic acid
 OpenBabel03171423152D

 10 10  0  0  0  0  0  0  0  0999 V2000
    0.0000    2.4750    0.0000 O   0  0  0  0  0  0  0  0  0  0  0  0
    0.7145    2.0625    0.0000 C   0  0  0  0  0  0  0  0  0  0  0  0
    1.4289    2.4750    0.0000 O   0  0  0  0  0  0  0  0  0  0  0  0
    0.7145    1.2375    0.0000 C   0  0  0  0  0  0  0  0  0  0  0  0
    1.4289    0.8250    0.0000 C   0  0  0  0  0  0  0  0  0  0  0  0
    1.4289   -0.0000    0.0000 C   0  0  0  0  0  0  0  0  0  0  0  0
    0.7145   -0.4125    0.0000 C   0  0  0  0  0  0  0  0  0  0  0  0
    0.0000    0.0000    0.0000 C   0  0  0  0  0  0  0  0  0  0  0  0
    0.0000    0.8250    0.0000 C   0  0  0  0  0  0  0  0  0  0  0  0
   -0.7145    1.2375    0.0000 O   0  0  0  0  0  0  0  0  0  0  0  0
  1  2  1  0  0  0  0
  2  3  2  0  0  0  0
  2  4  1  0  0  0  0
  4  5  2  0  0  0  0
  4  9  1  0  0  0  0
  5  6  1  0  0  0  0
  6  7  2  0  0  0  0
  7  8  1  0  0  0  0
  8  9  2  0  0  0  0
  9 10  1  0  0  0  0
M  END
$$$$
Thiram
 OpenBabel03171423152D

 12 11  0  0  0  0  0  0  0  0999 V2000
    1.0461    1.4289    0.0000 C   0  0  0  0  0  0  0  0  0  0  0  0
    1.7605    1.8414    0.0000 N   0  0  0  0  0  0  0  0  0  0  0  0
    1.7605    2.6664    0.0000 C   0  0  0  0  0  0  0  0  0  0  0  0
    2.4750    1.4289    0.0000 C   0  0  0  0  0  0  0  0  0  0  0  0
    2.4750    0.6039    0.0000 S   0  0  0  0  0  0  0  0  0  0  0  0
    3.1895    1.8414    0.0000 S   0  0  0  0  0  0  0  0  0  0  0  0
    3.9039    1.4289    0.0000 S   0  0  0  0  0  0  0  0  0  0  0  0
    4.6184    1.8414    0.0000 C   0  0  0  0  0  0  0  0  0  0  0  0
    4.6184    2.6664    0.0000 S   0  0  0  0  0  0  0  0  0  0  0  0
    5.3329    1.4289    0.0000 N   0  0  0  0  0  0  0  0  0  0  0  0
    6.0474    1.8414    0.0000 C   0  0  0  0  0  0  0  0  0  0  0  0
    5.3329    0.6039    0.0000 C   0  0  0  0  0  0  0  0  0  0  0  0
  1  2  1  0  0  0  0
  2  3  1  0  0  0  0
  2  4  1  0  0  0  0
  4  5  2  0  0  0  0
  4  6  1  0  0  0  0
  6  7  1  0  0  0  0
  7  8  1  0  0  0  0
  8  9  2  0  0  0  0
  8 10  1  0  0  0  0
 10 11  1  0  0  0  0
 10 12  1  0  0  0  0
M  END
$$$$
Dimethicone
 OpenBabel03171423152D

 13 12  0  0  1  0  0  0  0  0999 V2000
    0.1105   -1.2375    0.0000 Si  0  0  0  0  0  0  0  0  0  0  0  0
    0.8250   -0.8250    0.0000 O   0  0  0  0  0  0  0  0  0  0  0  0
    0.5230   -1.9520    0.0000 C   0  0  0  0  0  0  0  0  0  0  0  0
   -0.3020   -0.5230    0.0000 C   0  0  0  0  0  0  0  0  0  0  0  0
   -0.6039   -1.6500    0.0000 O   0  0  0  0  0  0  0  0  0  0  0  0
   -0.6039   -3.3000    0.0000 C   0  0  0  0  0  0  0  0  0  0  0  0
    0.2211   -2.4750    0.0000 C   0  0  0  0  0  0  0  0  0  0  0  0
   -0.6039   -2.4750    0.0000 Si  0  0  0  0  0  0  0  0  0  0  0  0
   -1.4289   -2.4750    0.0000 C   0  0  0  0  0  0  0  0  0  0  0  0
    0.8250    0.8250    0.0000 C   0  0  0  0  0  0  0  0  0  0  0  0
    1.6500   -0.0000    0.0000 C   0  0  0  0  0  0  0  0  0  0  0  0
    0.8250    0.0000    0.0000 Si  0  0  0  0  0  0  0  0  0  0  0  0
    0.0000    0.0000    0.0000 C   0  0  0  0  0  0  0  0  0  0  0  0
  1  2  1  0  0  0  0
  1  3  1  0  0  0  0
  1  4  1  0  0  0  0
  1  5  1  0  0  0  0
  2 12  1  0  0  0  0
  5  8  1  0  0  0  0
  8  6  1  0  0  0  0
  8  7  1  0  0  0  0
  8  9  1  0  0  0  0
 12 10  1  0  0  0  0
 12 11  1  0  0  0  0
 12 13  1  0  0  0  0
M  END
$$$$
styrene
 OpenBabel03171423152D

  8  8  0  0  0  0  0  0  0  0999 V2000
    0.0000    2.4750    0.0000 C   0  0  0  0  0  0  0  0  0  0  0  0
    0.7145    2.0625    0.0000 C   0  0  0  0  0  0  0  0  0  0  0  0
    0.7145    1.2375    0.0000 C   0  0  0  0  0  0  0  0  0  0  0  0
    1.4289    0.8250    0.0000 C   0  0  0  0  0  0  0  0  0  0  0  0
    1.4289   -0.0000    0.0000 C   0  0  0  0  0  0  0  0  0  0  0  0
    0.7145   -0.4125    0.0000 C   0  0  0  0  0  0  0  0  0  0  0  0
    0.0000    0.0000    0.0000 C   0  0  0  0  0  0  0  0  0  0  0  0
    0.0000    0.8250    0.0000 C   0  0  0  0  0  0  0  0  0  0  0  0
  1  2  2  0  0  0  0
  2  3  1  0  0  0  0
  3  4  2  0  0  0  0
  3  8  1  0  0  0  0
  4  5  1  0  0  0  0
  5  6  2  0  0  0  0
  6  7  1  0  0  0  0
  7  8  2  0  0  0  0
M  END
$$$$
polyvinyl alcohol
 OpenBabel03171423152D

  3  2  0  0  0  0  0  0  0  0999 V2000
    1.2375   -0.7145    0.0000 O   0  0  0  0  0  0  0  0  0  0  0  0
    1.9520   -1.1270    0.0000 C   0  0  0  0  0  0  0  0  0  0  0  0
    2.6664   -0.7145    0.0000 C   0  0  0  0  0  0  0  0  0  0  0  0
  1  2  1  0  0  0  0
  2  3  2  0  0  0  0
M  END
$$$$
Methyl anthranilate
 OpenBabel03171423152D

 11 11  0  0  0  0  0  0  0  0999 V2000
    0.0000    3.3000    0.0000 C   0  0  0  0  0  0  0  0  0  0  0  0
    0.0000    2.4750    0.0000 O   0  0  0  0  0  0  0  0  0  0  0  0
    0.7145    2.0625    0.0000 C   0  0  0  0  0  0  0  0  0  0  0  0
    1.4289    2.4750    0.0000 O   0  0  0  0  0  0  0  0  0  0  0  0
    0.7145    1.2375    0.0000 C   0  0  0  0  0  0  0  0  0  0  0  0
    1.4289    0.8250    0.0000 C   0  0  0  0  0  0  0  0  0  0  0  0
    1.4289   -0.0000    0.0000 C   0  0  0  0  0  0  0  0  0  0  0  0
    0.7145   -0.4125    0.0000 C   0  0  0  0  0  0  0  0  0  0  0  0
    0.0000    0.0000    0.0000 C   0  0  0  0  0  0  0  0  0  0  0  0
    0.0000    0.8250    0.0000 C   0  0  0  0  0  0  0  0  0  0  0  0
   -0.7145    1.2375    0.0000 N   0  0  0  0  0  0  0  0  0  0  0  0
  1  2  1  0  0  0  0
  2  3  1  0  0  0  0
  3  4  2  0  0  0  0
  3  5  1  0  0  0  0
  5  6  2  0  0  0  0
  5 10  1  0  0  0  0
  6  7  1  0  0  0  0
  7  8  2  0  0  0  0
  8  9  1  0  0  0  0
  9 10  2  0  0  0  0
 10 11  1  0  0  0  0
M  END
$$$$
ethyl acetate
 OpenBabel03171423152D

  6  5  0  0  0  0  0  0  0  0999 V2000
    1.2375    2.1434    0.0000 C   0  0  0  0  0  0  0  0  0  0  0  0
    0.8250    1.4289    0.0000 C   0  0  0  0  0  0  0  0  0  0  0  0
    1.2375    0.7145    0.0000 O   0  0  0  0  0  0  0  0  0  0  0  0
    0.8250    0.0000    0.0000 C   0  0  0  0  0  0  0  0  0  0  0  0
    1.2375   -0.7145    0.0000 C   0  0  0  0  0  0  0  0  0  0  0  0
    0.0000    0.0000    0.0000 O   0  0  0  0  0  0  0  0  0  0  0  0
  1  2  1  0  0  0  0
  2  3  1  0  0  0  0
  3  4  1  0  0  0  0
  4  5  1  0  0  0  0
  4  6  2  0  0  0  0
M  END
$$$$
ammonium chloride
 OpenBabel03171423152D

  2  0  0  0  0  0  0  0  0  0999 V2000
    0.0000    0.0000    0.0000 N   0  3  0  0  0  0  0  0  0  0  0  0
    1.0018    0.0000    0.0000 Cl  0  5  0  0  0  0  0  0  0  0  0  0
M  CHG  2   1   1   2  -1
M  END
$$$$
MSMA
 OpenBabel03171423152D

  6  4  0  0  0  0  0  0  0  0999 V2000
    0.0000    0.0000    0.0000 Na  0  3  0  0  0 15  0  0  0  0  0  0
    2.8286   -0.8250    0.0000 C   0  0  0  0  0  0  0  0  0  0  0  0
    2.8286    0.0000    0.0000 As  0  0  3  0  0  0  0  0  0  0  0  0
    2.8286    0.8250    0.0000 O   0  0  0  0  0  0  0  0  0  0  0  0
    3.6536   -0.0000    0.0000 O   0  5  0  0  0  0  0  0  0  0  0  0
    2.0036    0.0000    0.0000 O   0  0  0  0  0  0  0  0  0  0  0  0
  2  3  1  0  0  0  0
  3  4  1  0  0  0  0
  3  5  1  0  0  0  0
  3  6  2  0  0  0  0
M  CHG  2   1   1   5  -1
M  END
$$$$
Stirofos
 OpenBabel03171423152D

 19 19  0  0  0  0  0  0  0  0999 V2000
    2.1434    4.5375    0.0000 C   0  0  0  0  0  0  0  0  0  0  0  0
    1.4289    4.1250    0.0000 O   0  0  0  0  0  0  0  0  0  0  0  0
    1.4289    3.3000    0.0000 P   0  0  0  0  0  0  0  0  0  0  0  0
    0.6039    3.3000    0.0000 O   0  0  0  0  0  0  0  0  0  0  0  0
    2.2539    3.3000    0.0000 O   0  0  0  0  0  0  0  0  0  0  0  0
    2.6664    2.5855    0.0000 C   0  0  0  0  0  0  0  0  0  0  0  0
    1.4289    2.4750    0.0000 O   0  0  0  0  0  0  0  0  0  0  0  0
    0.7145    2.0625    0.0000 C   0  0  0  0  0  0  0  0  0  0  0  0
    0.7145    1.2375    0.0000 C   0  0  0  0  0  0  0  0  0  0  0  0
    1.4289    0.8250    0.0000 C   0  0  0  0  0  0  0  0  0  0  0  0
    1.4289   -0.0000    0.0000 C   0  0  0  0  0  0  0  0  0  0  0  0
    2.1434   -0.4125    0.0000 Cl  0  0  0  0  0  0  0  0  0  0  0  0
    0.7145   -0.4125    0.0000 C   0  0  0  0  0  0  0  0  0  0  0  0
    0.7145   -1.2375    0.0000 Cl  0  0  0  0  0  0  0  0  0  0  0  0
    0.0000    0.0000    0.0000 C   0  0  0  0  0  0  0  0  0  0  0  0
    0.0000    0.8250    0.0000 C   0  0  0  0  0  0  0  0  0  0  0  0
   -0.7145    1.2375    0.0000 Cl  0  0  0  0  0  0  0  0  0  0  0  0
    0.0000    2.4750    0.0000 C   0  0  0  0  0  0  0  0  0  0  0  0
    0.0000    3.3000    0.0000 Cl  0  0  0  0  0  0  0  0  0  0  0  0
  1  2  1  0  0  0  0
  2  3  1  0  0  0  0
  3  4  2  0  0  0  0
  3  5  1  0  0  0  0
  3  7  1  0  0  0  0
  5  6  1  0  0  0  0
  7  8  1  0  0  0  0
  8  9  1  0  0  0  0
  8 18  2  0  0  0  0
  9 10  2  0  0  0  0
  9 16  1  0  0  0  0
 10 11  1  0  0  0  0
 11 12  1  0  0  0  0
 11 13  2  0  0  0  0
 13 14  1  0  0  0  0
 13 15  1  0  0  0  0
 15 16  2  0  0  0  0
 16 17  1  0  0  0  0
 18 19  1  0  0  0  0
M  END
$$$$
clethodim
 OpenBabel03171423152D

 23 23  0  0  0  0  0  0  0  0999 V2000
    0.0000   -2.4750    0.0000 C   0  0  0  0  0  0  0  0  0  0  0  0
    0.7145   -2.8875    0.0000 C   0  0  0  0  0  0  0  0  0  0  0  0
    1.4289   -2.4750    0.0000 S   0  0  0  0  0  0  0  0  0  0  0  0
    2.1434   -2.8875    0.0000 C   0  0  3  0  0  0  0  0  0  0  0  0
    2.1434   -3.7125    0.0000 C   0  0  0  0  0  0  0  0  0  0  0  0
    2.8579   -2.4750    0.0000 C   0  0  0  0  0  0  0  0  0  0  0  0
    3.5724   -2.8875    0.0000 C   0  0  3  0  0  0  0  0  0  0  0  0
    4.2868   -2.4750    0.0000 C   0  0  0  0  0  0  0  0  0  0  0  0
    5.0013   -2.8875    0.0000 C   0  0  0  0  0  0  0  0  0  0  0  0
    5.7158   -2.4750    0.0000 O   0  0  0  0  0  0  0  0  0  0  0  0
    5.0013   -3.7125    0.0000 C   0  0  0  0  0  0  0  0  0  0  0  0
    5.7158   -4.1250    0.0000 C   0  0  0  0  0  0  0  0  0  0  0  0
    6.4302   -3.7125    0.0000 C   0  0  0  0  0  0  0  0  0  0  0  0
    7.1447   -4.1250    0.0000 C   0  0  0  0  0  0  0  0  0  0  0  0
    5.7158   -4.9500    0.0000 N   0  0  0  0  0  0  0  0  0  0  0  0
    6.4302   -5.3625    0.0000 O   0  0  0  0  0  0  0  0  0  0  0  0
    6.4302   -6.1875    0.0000 C   0  0  0  0  0  0  0  0  0  0  0  0
    7.1447   -6.6000    0.0000 C   0  0  0  0  0  0  0  0  0  0  0  0
    7.1447   -7.4250    0.0000 C   0  0  0  0  0  0  0  0  0  0  0  0
    7.8592   -7.8375    0.0000 Cl  0  0  0  0  0  0  0  0  0  0  0  0
    4.2868   -4.1250    0.0000 C   0  0  0  0  0  0  0  0  0  0  0  0
    4.2868   -4.9500    0.0000 O   0  0  0  0  0  0  0  0  0  0  0  0
    3.5724   -3.7125    0.0000 C   0  0  0  0  0  0  0  0  0  0  0  0
  1  2  1  0  0  0  0
  2  3  1  0  0  0  0
  3  4  1  0  0  0  0
  4  5  1  0  0  0  0
  4  6  1  0  0  0  0
  6  7  1  0  0  0  0
  7  8  1  0  0  0  0
  7 23  1  0  0  0  0
  8  9  1  0  0  0  0
  9 10  1  0  0  0  0
  9 11  2  0  0  0  0
 11 12  1  0  0  0  0
 11 21  1  0  0  0  0
 12 13  1  0  0  0  0
 12 15  2  0  0  0  0
 13 14  1  0  0  0  0
 15 16  1  0  0  0  0
 16 17  1  0  0  0  0
 17 18  1  0  0  0  0
 18 19  2  0  0  0  0
 19 20  1  0  0  0  0
 21 22  2  0  0  0  0
 21 23  1  0  0  0  0
M  END
>  <type>
common

$$$$
prometryn
 OpenBabel03171423152D

 16 16  0  0  0  0  0  0  0  0999 V2000
    0.0000    2.4750    0.0000 C   0  0  0  0  0  0  0  0  0  0  0  0
    0.7145    2.0625    0.0000 S   0  0  0  0  0  0  0  0  0  0  0  0
    0.7145    1.2375    0.0000 C   0  0  0  0  0  0  0  0  0  0  0  0
    1.4289    0.8250    0.0000 N   0  0  0  0  0  0  0  0  0  0  0  0
    1.4289   -0.0000    0.0000 C   0  0  0  0  0  0  0  0  0  0  0  0
    2.1434   -0.4125    0.0000 N   0  0  0  0  0  0  0  0  0  0  0  0
    2.8579   -0.0000    0.0000 C   0  0  0  0  0  0  0  0  0  0  0  0
    3.5724   -0.4125    0.0000 C   0  0  0  0  0  0  0  0  0  0  0  0
    2.8579    0.8250    0.0000 C   0  0  0  0  0  0  0  0  0  0  0  0
    0.7145   -0.4125    0.0000 N   0  0  0  0  0  0  0  0  0  0  0  0
    0.0000    0.0000    0.0000 C   0  0  0  0  0  0  0  0  0  0  0  0
   -0.7145   -0.4125    0.0000 N   0  0  0  0  0  0  0  0  0  0  0  0
   -1.4289    0.0000    0.0000 C   0  0  0  0  0  0  0  0  0  0  0  0
   -2.1434   -0.4125    0.0000 C   0  0  0  0  0  0  0  0  0  0  0  0
   -1.4289    0.8250    0.0000 C   0  0  0  0  0  0  0  0  0  0  0  0
    0.0000    0.8250    0.0000 N   0  0  0  0  0  0  0  0  0  0  0  0
  1  2  1  0  0  0  0
  2  3  1  0  0  0  0
  3  4  2  0  0  0  0
  3 16  1  0  0  0  0
  4  5  1  0  0  0  0
  5  6  1  0  0  0  0
  5 10  2  0  0  0  0
  6  7  1  0  0  0  0
  7  8  1  0  0  0  0
  7  9  1  0  0  0  0
 10 11  1  0  0  0  0
 11 12  1  0  0  0  0
 11 16  2  0  0  0  0
 12 13  1  0  0  0  0
 13 14  1  0  0  0  0
 13 15  1  0  0  0  0
M  END
$$$$
sulfate
 OpenBabel03171423152D

  5  4  0  0  0  0  0  0  0  0999 V2000
    0.8250   -0.8250    0.0000 O   0  5  0  0  0  0  0  0  0  0  0  0
    0.8250    0.0000    0.0000 S   0  0  0  0  0  0  0  0  0  0  0  0
    0.8250    0.8250    0.0000 O   0  5  0  0  0  0  0  0  0  0  0  0
    1.6500   -0.0000    0.0000 O   0  0  0  0  0  0  0  0  0  0  0  0
    0.0000    0.0000    0.0000 O   0  0  0  0  0  0  0  0  0  0  0  0
  1  2  1  0  0  0  0
  2  3  1  0  0  0  0
  2  4  2  0  0  0  0
  2  5  2  0  0  0  0
M  CHG  2   1  -1   3  -1
M  END
$$$$
dicofol
 OpenBabel03171423152D

 20 21  0  0  0  0  0  0  0  0999 V2000
   -0.1105   -1.2375    0.0000 O   0  0  0  0  0  0  0  0  0  0  0  0
    0.7145   -1.2375    0.0000 C   0  0  0  0  0  0  0  0  0  0  0  0
    0.7145   -2.0625    0.0000 C   0  0  0  0  0  0  0  0  0  0  0  0
    1.4289   -2.4750    0.0000 C   0  0  0  0  0  0  0  0  0  0  0  0
    1.4289   -3.3000    0.0000 C   0  0  0  0  0  0  0  0  0  0  0  0
    0.7145   -3.7125    0.0000 C   0  0  0  0  0  0  0  0  0  0  0  0
    0.7145   -4.5375    0.0000 Cl  0  0  0  0  0  0  0  0  0  0  0  0
    0.0000   -3.3000    0.0000 C   0  0  0  0  0  0  0  0  0  0  0  0
    0.0000   -2.4750    0.0000 C   0  0  0  0  0  0  0  0  0  0  0  0
    0.7145   -0.4125    0.0000 C   0  0  0  0  0  0  0  0  0  0  0  0
    0.0000    0.0000    0.0000 C   0  0  0  0  0  0  0  0  0  0  0  0
    0.0000    0.8250    0.0000 C   0  0  0  0  0  0  0  0  0  0  0  0
    0.7145    1.2375    0.0000 C   0  0  0  0  0  0  0  0  0  0  0  0
    0.7145    2.0625    0.0000 Cl  0  0  0  0  0  0  0  0  0  0  0  0
    1.4289    0.8250    0.0000 C   0  0  0  0  0  0  0  0  0  0  0  0
    1.4289   -0.0000    0.0000 C   0  0  0  0  0  0  0  0  0  0  0  0
    1.5395   -1.2375    0.0000 C   0  0  0  0  0  0  0  0  0  0  0  0
    2.3645   -1.2375    0.0000 Cl  0  0  0  0  0  0  0  0  0  0  0  0
    1.5395   -2.0625    0.0000 Cl  0  0  0  0  0  0  0  0  0  0  0  0
    1.5395   -0.4125    0.0000 Cl  0  0  0  0  0  0  0  0  0  0  0  0
  1  2  1  0  0  0  0
  2  3  1  0  0  0  0
  2 10  1  0  0  0  0
  2 17  1  0  0  0  0
  3  4  2  0  0  0  0
  3  9  1  0  0  0  0
  4  5  1  0  0  0  0
  5  6  2  0  0  0  0
  6  7  1  0  0  0  0
  6  8  1  0  0  0  0
  8  9  2  0  0  0  0
 10 11  2  0  0  0  0
 10 16  1  0  0  0  0
 11 12  1  0  0  0  0
 12 13  2  0  0  0  0
 13 14  1  0  0  0  0
 13 15  1  0  0  0  0
 15 16  2  0  0  0  0
 17 18  1  0  0  0  0
 17 19  1  0  0  0  0
 17 20  1  0  0  0  0
M  END
$$$$
Capric Acid
 OpenBabel03171423152D

 12 11  0  0  0  0  0  0  0  0999 V2000
    4.2355    3.2704    0.0000 C   0  0  0  0  0  0  0  0  0  0  0  0
    4.9500    2.8579    0.0000 C   0  0  0  0  0  0  0  0  0  0  0  0
    5.6645    3.2704    0.0000 C   0  0  0  0  0  0  0  0  0  0  0  0
    6.3789    2.8579    0.0000 C   0  0  0  0  0  0  0  0  0  0  0  0
    7.0934    3.2704    0.0000 C   0  0  0  0  0  0  0  0  0  0  0  0
    7.8079    2.8579    0.0000 C   0  0  0  0  0  0  0  0  0  0  0  0
    8.5224    3.2704    0.0000 C   0  0  0  0  0  0  0  0  0  0  0  0
    9.2368    2.8579    0.0000 C   0  0  0  0  0  0  0  0  0  0  0  0
    9.9513    3.2704    0.0000 C   0  0  0  0  0  0  0  0  0  0  0  0
   10.6658    2.8579    0.0000 C   0  0  0  0  0  0  0  0  0  0  0  0
   11.3802    3.2704    0.0000 O   0  0  0  0  0  0  0  0  0  0  0  0
   10.6658    2.0329    0.0000 O   0  0  0  0  0  0  0  0  0  0  0  0
  1  2  1  0  0  0  0
  2  3  1  0  0  0  0
  3  4  1  0  0  0  0
  4  5  1  0  0  0  0
  5  6  1  0  0  0  0
  6  7  1  0  0  0  0
  7  8  1  0  0  0  0
  8  9  1  0  0  0  0
  9 10  1  0  0  0  0
 10 11  1  0  0  0  0
 10 12  2  0  0  0  0
M  END
$$$$
Borax
 OpenBabel03171423152D

 23 14  0  0  0  0  0  0  0  0999 V2000
    0.0000    0.0000    0.0000 O   0  0  0  0  0  0  0  0  0  0  0  0
    2.2393    0.0000    0.0000 O   0  0  0  0  0  0  0  0  0  0  0  0
    4.4786    0.0000    0.0000 O   0  0  0  0  0  0  0  0  0  0  0  0
    6.7179    0.0000    0.0000 O   0  0  0  0  0  0  0  0  0  0  0  0
    0.0000   -1.6500    0.0000 O   0  0  0  0  0  0  0  0  0  0  0  0
    2.2393   -1.6500    0.0000 O   0  0  0  0  0  0  0  0  0  0  0  0
    4.4786   -1.6500    0.0000 O   0  0  0  0  0  0  0  0  0  0  0  0
    6.7179   -1.6500    0.0000 O   0  0  0  0  0  0  0  0  0  0  0  0
    0.0000   -4.6227    0.0000 Na  0  3  0  0  0 15  0  0  0  0  0  0
    1.0018   -4.6227    0.0000 Na  0  3  0  0  0 15  0  0  0  0  0  0
    3.5364   -6.0365    0.0000 O   0  0  0  0  0  0  0  0  0  0  0  0
    4.2242   -5.5809    0.0000 B   0  0  0  0  0  0  0  0  0  0  0  0
    5.0405   -5.4014    0.0000 O   0  0  0  0  0  0  0  0  0  0  0  0
    4.9935   -4.4145    0.0000 B   0  5  3  0  0  0  0  0  0  0  0  0
    5.5595   -3.8142    0.0000 O   0  0  0  0  0  0  0  0  0  0  0  0
    4.0335   -4.4252    0.0000 O   0  0  0  0  0  0  0  0  0  0  0  0
    3.5290   -4.8495    0.0000 B   0  0  0  0  0  0  0  0  0  0  0  0
    3.1232   -5.5678    0.0000 O   0  0  0  0  0  0  0  0  0  0  0  0
    3.6559   -4.0476    0.0000 O   0  0  0  0  0  0  0  0  0  0  0  0
    4.5749   -4.0469    0.0000 B   0  5  3  0  0  0  0  0  0  0  0  0
    4.9253   -3.3000    0.0000 O   0  0  0  0  0  0  0  0  0  0  0  0
    4.6363   -5.0000    0.0000 O   0  0  0  0  0  0  0  0  0  0  0  0
    5.1247   -3.6109    0.0000 O   0  0  0  0  0  0  0  0  0  0  0  0
 11 12  1  0  0  0  0
 12 13  1  0  0  0  0
 12 22  1  0  0  0  0
 13 14  1  0  0  0  0
 14 15  1  0  0  0  0
 14 16  1  0  0  0  0
 14 23  1  0  0  0  0
 16 17  1  0  0  0  0
 17 18  1  0  0  0  0
 17 19  1  0  0  0  0
 19 20  1  0  0  0  0
 20 21  1  0  0  0  0
 20 22  1  0  0  0  0
 20 23  1  0  0  0  0
M  CHG  4   9   1  10   1  14  -1  20  -1
M  END
$$$$
Naled
 OpenBabel03171423152D

 13 12  0  0  0  0  0  0  0  0999 V2000
   -0.6039   -3.3000    0.0000 C   0  0  0  0  0  0  0  0  0  0  0  0
    0.1105   -2.8875    0.0000 O   0  0  0  0  0  0  0  0  0  0  0  0
    0.1105   -2.0625    0.0000 P   0  0  0  0  0  0  0  0  0  0  0  0
    0.9355   -2.0625    0.0000 O   0  0  0  0  0  0  0  0  0  0  0  0
   -0.7145   -2.0625    0.0000 O   0  0  0  0  0  0  0  0  0  0  0  0
   -1.1270   -1.3480    0.0000 C   0  0  0  0  0  0  0  0  0  0  0  0
    0.1105   -1.2375    0.0000 O   0  0  0  0  0  0  0  0  0  0  0  0
    0.8250   -0.8250    0.0000 C   0  0  3  0  0  0  0  0  0  0  0  0
    1.5395   -1.2375    0.0000 Br  0  0  0  0  0  0  0  0  0  0  0  0
    0.8250    0.0000    0.0000 C   0  0  0  0  0  0  0  0  0  0  0  0
    0.8250    0.8250    0.0000 Cl  0  0  0  0  0  0  0  0  0  0  0  0
    1.6500   -0.0000    0.0000 Cl  0  0  0  0  0  0  0  0  0  0  0  0
    0.0000    0.0000    0.0000 Br  0  0  0  0  0  0  0  0  0  0  0  0
  1  2  1  0  0  0  0
  2  3  1  0  0  0  0
  3  4  2  0  0  0  0
  3  5  1  0  0  0  0
  3  7  1  0  0  0  0
  5  6  1  0  0  0  0
  7  8  1  0  0  0  0
  8  9  1  0  0  0  0
  8 10  1  0  0  0  0
 10 11  1  0  0  0  0
 10 12  1  0  0  0  0
 10 13  1  0  0  0  0
M  END
$$$$
Baking Soda
 OpenBabel03171423152D

  5  3  0  0  0  0  0  0  0  0999 V2000
    0.0000    0.0000    0.0000 Na  0  3  0  0  0 15  0  0  0  0  0  0
    3.2411    0.7145    0.0000 O   0  0  0  0  0  0  0  0  0  0  0  0
    2.8286   -0.0000    0.0000 C   0  0  0  0  0  0  0  0  0  0  0  0
    3.2411   -0.7145    0.0000 O   0  5  0  0  0  0  0  0  0  0  0  0
    2.0036   -0.0000    0.0000 O   0  0  0  0  0  0  0  0  0  0  0  0
  2  3  1  0  0  0  0
  3  4  1  0  0  0  0
  3  5  2  0  0  0  0
M  CHG  2   1   1   4  -1
M  END
$$$$
oxamyl
 OpenBabel03171423152D

 14 13  0  0  0  0  0  0  0  0999 V2000
    3.3000    1.4289    0.0000 C   0  0  0  0  0  0  0  0  0  0  0  0
    2.4750    1.4289    0.0000 N   0  0  0  0  0  0  0  0  0  0  0  0
    2.0625    0.7145    0.0000 C   0  0  0  0  0  0  0  0  0  0  0  0
    2.4750    0.0000    0.0000 O   0  0  0  0  0  0  0  0  0  0  0  0
    1.2375    0.7145    0.0000 O   0  0  0  0  0  0  0  0  0  0  0  0
    0.8250    0.0000    0.0000 N   0  0  0  0  0  0  0  0  0  0  0  0
    0.0000    0.0000    0.0000 C   0  0  0  0  0  0  0  0  0  0  0  0
   -0.4125    0.7145    0.0000 S   0  0  0  0  0  0  0  0  0  0  0  0
   -1.2375    0.7145    0.0000 C   0  0  0  0  0  0  0  0  0  0  0  0
   -0.4125   -0.7145    0.0000 C   0  0  0  0  0  0  0  0  0  0  0  0
    0.0000   -1.4289    0.0000 O   0  0  0  0  0  0  0  0  0  0  0  0
   -1.2375   -0.7145    0.0000 N   0  0  0  0  0  0  0  0  0  0  0  0
   -1.6500   -1.4289    0.0000 C   0  0  0  0  0  0  0  0  0  0  0  0
   -1.6500    0.0000    0.0000 C   0  0  0  0  0  0  0  0  0  0  0  0
  1  2  1  0  0  0  0
  2  3  1  0  0  0  0
  3  4  2  0  0  0  0
  3  5  1  0  0  0  0
  6  5  1  0  0  0  0
  6  7  2  3  0  0  0
  7  8  1  0  0  0  0
  7 10  1  0  0  0  0
  8  9  1  0  0  0  0
 10 11  2  0  0  0  0
 10 12  1  0  0  0  0
 12 13  1  0  0  0  0
 12 14  1  0  0  0  0
M  END
$$$$
Oxybis(tributyltin)
 OpenBabel03171423152D

 27 26  0  0  0  0  0  0  0  0999 V2000
   -1.8414    2.1434    0.0000 C   0  0  0  0  0  0  0  0  0  0  0  0
   -2.2539    1.4289    0.0000 C   0  0  0  0  0  0  0  0  0  0  0  0
   -1.8414    0.7145    0.0000 C   0  0  0  0  0  0  0  0  0  0  0  0
   -1.0164    0.7145    0.0000 C   0  0  0  0  0  0  0  0  0  0  0  0
   -0.6039    0.0000    0.0000 Sn  0  0  0  0  0  0  0  0  0  0  0  0
   -1.3184   -0.4125    0.0000 C   0  0  0  0  0  0  0  0  0  0  0  0
   -2.0329    0.0000    0.0000 C   0  0  0  0  0  0  0  0  0  0  0  0
   -2.7474   -0.4125    0.0000 C   0  0  0  0  0  0  0  0  0  0  0  0
   -3.4618    0.0000    0.0000 C   0  0  0  0  0  0  0  0  0  0  0  0
    0.1105    0.4125    0.0000 C   0  0  0  0  0  0  0  0  0  0  0  0
    0.8250    0.0000    0.0000 C   0  0  0  0  0  0  0  0  0  0  0  0
    1.5395    0.4125    0.0000 C   0  0  0  0  0  0  0  0  0  0  0  0
    2.2539   -0.0000    0.0000 C   0  0  0  0  0  0  0  0  0  0  0  0
   -0.1914   -0.7145    0.0000 O   0  0  0  0  0  0  0  0  0  0  0  0
   -0.6039   -1.4289    0.0000 Sn  0  0  0  0  0  0  0  0  0  0  0  0
   -1.0164   -2.1434    0.0000 C   0  0  0  0  0  0  0  0  0  0  0  0
   -0.6039   -2.8579    0.0000 C   0  0  0  0  0  0  0  0  0  0  0  0
   -1.0164   -3.5724    0.0000 C   0  0  0  0  0  0  0  0  0  0  0  0
   -0.6039   -4.2868    0.0000 C   0  0  0  0  0  0  0  0  0  0  0  0
   -1.3184   -1.0164    0.0000 C   0  0  0  0  0  0  0  0  0  0  0  0
   -2.0329   -1.4289    0.0000 C   0  0  0  0  0  0  0  0  0  0  0  0
   -2.7474   -1.0164    0.0000 C   0  0  0  0  0  0  0  0  0  0  0  0
   -3.4618   -1.4289    0.0000 C   0  0  0  0  0  0  0  0  0  0  0  0
    0.1105   -1.8414    0.0000 C   0  0  0  0  0  0  0  0  0  0  0  0
    0.1105   -2.6664    0.0000 C   0  0  0  0  0  0  0  0  0  0  0  0
    0.8250   -3.0789    0.0000 C   0  0  0  0  0  0  0  0  0  0  0  0
    0.8250   -3.9039    0.0000 C   0  0  0  0  0  0  0  0  0  0  0  0
  1  2  1  0  0  0  0
  2  3  1  0  0  0  0
  3  4  1  0  0  0  0
  4  5  1  0  0  0  0
  5  6  1  0  0  0  0
  5 10  1  0  0  0  0
  5 14  1  0  0  0  0
  6  7  1  0  0  0  0
  7  8  1  0  0  0  0
  8  9  1  0  0  0  0
 10 11  1  0  0  0  0
 11 12  1  0  0  0  0
 12 13  1  0  0  0  0
 14 15  1  0  0  0  0
 15 16  1  0  0  0  0
 15 20  1  0  0  0  0
 15 24  1  0  0  0  0
 16 17  1  0  0  0  0
 17 18  1  0  0  0  0
 18 19  1  0  0  0  0
 20 21  1  0  0  0  0
 21 22  1  0  0  0  0
 22 23  1  0  0  0  0
 24 25  1  0  0  0  0
 25 26  1  0  0  0  0
 26 27  1  0  0  0  0
M  END
$$$$
Cuprous Thiocyanate
 OpenBabel03171423152D

  4  3  0  0  0  0  0  0  0  0999 V2000
    2.0625   -0.7145    0.0000 Cu  0  0  0  0  0  0  0  0  0  0  0  0
    1.6500   -0.0000    0.0000 S   0  0  0  0  0  0  0  0  0  0  0  0
    0.8250    0.0000    0.0000 C   0  0  0  0  0  0  0  0  0  0  0  0
    0.0000    0.0000    0.0000 N   0  0  0  0  0  0  0  0  0  0  0  0
  1  2  1  0  0  0  0
  2  3  1  0  0  0  0
  3  4  3  0  0  0  0
M  END
>  <type>
common

$$$$
acrylonitrile
 OpenBabel03171423152D

  5  4  0  0  0  0  0  0  0  0999 V2000
    2.0625   -0.7145    0.0000 N   0  0  0  0  0  0  0  0  0  0  0  0
    1.2375   -0.7145    0.0000 C   0  0  0  0  0  0  0  0  0  0  0  0
    0.8250   -1.4289    0.0000 O   0  0  0  0  0  0  0  0  0  0  0  0
    0.8250    0.0000    0.0000 C   0  0  0  0  0  0  0  0  0  0  0  0
    0.0000    0.0000    0.0000 C   0  0  0  0  0  0  0  0  0  0  0  0
  1  2  1  0  0  0  0
  2  3  2  0  0  0  0
  2  4  1  0  0  0  0
  4  5  2  0  0  0  0
M  END
$$$$
tris
 OpenBabel03171423152D

  8  7  0  0  0  0  0  0  0  0999 V2000
    1.6500    1.4289    0.0000 N   0  0  0  0  0  0  0  0  0  0  0  0
    1.2375    0.7145    0.0000 C   0  0  0  0  0  0  0  0  0  0  0  0
    0.5230    1.1270    0.0000 C   0  0  0  0  0  0  0  0  0  0  0  0
   -0.1914    0.7145    0.0000 O   0  0  0  0  0  0  0  0  0  0  0  0
    1.9520    0.3020    0.0000 C   0  0  0  0  0  0  0  0  0  0  0  0
    2.6664    0.7145    0.0000 O   0  0  0  0  0  0  0  0  0  0  0  0
    0.8250    0.0000    0.0000 C   0  0  0  0  0  0  0  0  0  0  0  0
    0.0000    0.0000    0.0000 O   0  0  0  0  0  0  0  0  0  0  0  0
  1  2  1  0  0  0  0
  2  3  1  0  0  0  0
  2  5  1  0  0  0  0
  2  7  1  0  0  0  0
  3  4  1  0  0  0  0
  5  6  1  0  0  0  0
  7  8  1  0  0  0  0
M  END
$$$$
cyfluthrin
 OpenBabel03171423152D

 29 31  0  0  0  0  0  0  0  0999 V2000
    0.5432   -2.6053    0.0000 C   0  0  0  0  0  0  0  0  0  0  0  0
    1.3184   -2.8875    0.0000 C   0  0  0  0  0  0  0  0  0  0  0  0
    1.1752   -3.7000    0.0000 C   0  0  0  0  0  0  0  0  0  0  0  0
    1.7309   -2.1730    0.0000 C   0  0  3  0  0  0  0  0  0  0  0  0
    1.7309   -1.3480    0.0000 C   0  0  0  0  0  0  0  0  0  0  0  0
    2.4454   -0.9355    0.0000 C   0  0  0  0  0  0  0  0  0  0  0  0
    2.4454   -0.1105    0.0000 Cl  0  0  0  0  0  0  0  0  0  0  0  0
    3.1599   -1.3480    0.0000 Cl  0  0  0  0  0  0  0  0  0  0  0  0
    2.1434   -2.8875    0.0000 C   0  0  3  0  0  0  0  0  0  0  0  0
    2.8579   -3.3000    0.0000 C   0  0  0  0  0  0  0  0  0  0  0  0
    3.5724   -2.8875    0.0000 O   0  0  0  0  0  0  0  0  0  0  0  0
    2.8579   -4.1250    0.0000 O   0  0  0  0  0  0  0  0  0  0  0  0
    3.5724   -4.5375    0.0000 C   0  0  3  0  0  0  0  0  0  0  0  0
    4.2868   -4.1250    0.0000 C   0  0  0  0  0  0  0  0  0  0  0  0
    5.0013   -3.7125    0.0000 N   0  0  0  0  0  0  0  0  0  0  0  0
    3.5724   -5.3625    0.0000 C   0  0  0  0  0  0  0  0  0  0  0  0
    4.2868   -5.7750    0.0000 C   0  0  0  0  0  0  0  0  0  0  0  0
    4.2868   -6.6000    0.0000 C   0  0  0  0  0  0  0  0  0  0  0  0
    5.0013   -7.0125    0.0000 O   0  0  0  0  0  0  0  0  0  0  0  0
    5.0013   -7.8375    0.0000 C   0  0  0  0  0  0  0  0  0  0  0  0
    5.7158   -8.2500    0.0000 C   0  0  0  0  0  0  0  0  0  0  0  0
    5.7158   -9.0750    0.0000 C   0  0  0  0  0  0  0  0  0  0  0  0
    5.0013   -9.4875    0.0000 C   0  0  0  0  0  0  0  0  0  0  0  0
    4.2868   -9.0750    0.0000 C   0  0  0  0  0  0  0  0  0  0  0  0
    4.2868   -8.2500    0.0000 C   0  0  0  0  0  0  0  0  0  0  0  0
    3.5724   -7.0125    0.0000 C   0  0  0  0  0  0  0  0  0  0  0  0
    3.5724   -7.8375    0.0000 F   0  0  0  0  0  0  0  0  0  0  0  0
    2.8579   -6.6000    0.0000 C   0  0  0  0  0  0  0  0  0  0  0  0
    2.8579   -5.7750    0.0000 C   0  0  0  0  0  0  0  0  0  0  0  0
  1  2  1  0  0  0  0
  2  3  1  0  0  0  0
  2  4  1  0  0  0  0
  2  9  1  0  0  0  0
  4  5  1  0  0  0  0
  4  9  1  0  0  0  0
  5  6  2  0  0  0  0
  6  7  1  0  0  0  0
  6  8  1  0  0  0  0
  9 10  1  0  0  0  0
 10 11  2  0  0  0  0
 10 12  1  0  0  0  0
 12 13  1  0  0  0  0
 13 14  1  0  0  0  0
 13 16  1  0  0  0  0
 14 15  3  0  0  0  0
 16 17  2  0  0  0  0
 16 29  1  0  0  0  0
 17 18  1  0  0  0  0
 18 19  1  0  0  0  0
 18 26  2  0  0  0  0
 19 20  1  0  0  0  0
 20 21  2  0  0  0  0
 20 25  1  0  0  0  0
 21 22  1  0  0  0  0
 22 23  2  0  0  0  0
 23 24  1  0  0  0  0
 24 25  2  0  0  0  0
 26 27  1  0  0  0  0
 26 28  1  0  0  0  0
 28 29  2  0  0  0  0
M  END
$$$$
Eugenol
 OpenBabel03171423152D

 12 12  0  0  0  0  0  0  0  0999 V2000
    1.4289    2.4750    0.0000 C   0  0  0  0  0  0  0  0  0  0  0  0
    0.7145    2.0625    0.0000 O   0  0  0  0  0  0  0  0  0  0  0  0
    0.7145    1.2375    0.0000 C   0  0  0  0  0  0  0  0  0  0  0  0
    1.4289    0.8250    0.0000 C   0  0  0  0  0  0  0  0  0  0  0  0
    2.1434    1.2375    0.0000 O   0  0  0  0  0  0  0  0  0  0  0  0
    1.4289   -0.0000    0.0000 C   0  0  0  0  0  0  0  0  0  0  0  0
    0.7145   -0.4125    0.0000 C   0  0  0  0  0  0  0  0  0  0  0  0
    0.0000    0.0000    0.0000 C   0  0  0  0  0  0  0  0  0  0  0  0
   -0.7145   -0.4125    0.0000 C   0  0  0  0  0  0  0  0  0  0  0  0
   -1.4289    0.0000    0.0000 C   0  0  0  0  0  0  0  0  0  0  0  0
   -2.1434   -0.4125    0.0000 C   0  0  0  0  0  0  0  0  0  0  0  0
    0.0000    0.8250    0.0000 C   0  0  0  0  0  0  0  0  0  0  0  0
  1  2  1  0  0  0  0
  2  3  1  0  0  0  0
  3  4  2  0  0  0  0
  3 12  1  0  0  0  0
  4  5  1  0  0  0  0
  4  6  1  0  0  0  0
  6  7  2  0  0  0  0
  7  8  1  0  0  0  0
  8  9  1  0  0  0  0
  8 12  2  0  0  0  0
  9 10  1  0  0  0  0
 10 11  2  0  0  0  0
M  END
$$$$
4-hydroxy-3-(3-oxo-1-phenylbutyl)-2H-chromen-2-one
 OpenBabel03171423152D

 23 25  0  0  0  0  0  0  0  0999 V2000
   -0.7145    2.0625    0.0000 C   0  0  0  0  0  0  0  0  0  0  0  0
   -0.7145    1.2375    0.0000 C   0  0  0  0  0  0  0  0  0  0  0  0
   -1.4289    0.8250    0.0000 O   0  0  0  0  0  0  0  0  0  0  0  0
    0.0000    0.8250    0.0000 C   0  0  0  0  0  0  0  0  0  0  0  0
    0.0000    0.0000    0.0000 C   0  0  3  0  0  0  0  0  0  0  0  0
   -0.7145   -0.4125    0.0000 C   0  0  0  0  0  0  0  0  0  0  0  0
   -0.7145   -1.2375    0.0000 C   0  0  0  0  0  0  0  0  0  0  0  0
   -1.4289   -1.6500    0.0000 C   0  0  0  0  0  0  0  0  0  0  0  0
   -2.1434   -1.2375    0.0000 C   0  0  0  0  0  0  0  0  0  0  0  0
   -2.1434   -0.4125    0.0000 C   0  0  0  0  0  0  0  0  0  0  0  0
   -1.4289    0.0000    0.0000 C   0  0  0  0  0  0  0  0  0  0  0  0
    0.7145   -0.4125    0.0000 C   0  0  0  0  0  0  0  0  0  0  0  0
    1.4289    0.0000    0.0000 C   0  0  0  0  0  0  0  0  0  0  0  0
    1.4289    0.8250    0.0000 O   0  0  0  0  0  0  0  0  0  0  0  0
    2.1434   -0.4125    0.0000 C   0  0  0  0  0  0  0  0  0  0  0  0
    2.8579    0.0000    0.0000 C   0  0  0  0  0  0  0  0  0  0  0  0
    3.5724   -0.4125    0.0000 C   0  0  0  0  0  0  0  0  0  0  0  0
    3.5724   -1.2375    0.0000 C   0  0  0  0  0  0  0  0  0  0  0  0
    2.8579   -1.6500    0.0000 C   0  0  0  0  0  0  0  0  0  0  0  0
    2.1434   -1.2375    0.0000 C   0  0  0  0  0  0  0  0  0  0  0  0
    1.4289   -1.6500    0.0000 O   0  0  0  0  0  0  0  0  0  0  0  0
    0.7145   -1.2375    0.0000 C   0  0  0  0  0  0  0  0  0  0  0  0
    0.0000   -1.6500    0.0000 O   0  0  0  0  0  0  0  0  0  0  0  0
  1  2  1  0  0  0  0
  2  3  2  0  0  0  0
  2  4  1  0  0  0  0
  4  5  1  0  0  0  0
  5  6  1  0  0  0  0
  5 12  1  0  0  0  0
  6  7  2  0  0  0  0
  6 11  1  0  0  0  0
  7  8  1  0  0  0  0
  8  9  2  0  0  0  0
  9 10  1  0  0  0  0
 10 11  2  0  0  0  0
 12 13  2  0  0  0  0
 12 22  1  0  0  0  0
 13 14  1  0  0  0  0
 13 15  1  0  0  0  0
 15 16  2  0  0  0  0
 15 20  1  0  0  0  0
 16 17  1  0  0  0  0
 17 18  2  0  0  0  0
 18 19  1  0  0  0  0
 19 20  2  0  0  0  0
 20 21  1  0  0  0  0
 21 22  1  0  0  0  0
 22 23  2  0  0  0  0
M  END
$$$$
Propoxur
 OpenBabel03171423152D

 15 15  0  0  0  0  0  0  0  0999 V2000
   -0.7145    3.7125    0.0000 C   0  0  0  0  0  0  0  0  0  0  0  0
    0.0000    3.3000    0.0000 N   0  0  0  0  0  0  0  0  0  0  0  0
    0.0000    2.4750    0.0000 C   0  0  0  0  0  0  0  0  0  0  0  0
   -0.7145    2.0625    0.0000 O   0  0  0  0  0  0  0  0  0  0  0  0
    0.7145    2.0625    0.0000 O   0  0  0  0  0  0  0  0  0  0  0  0
    0.7145    1.2375    0.0000 C   0  0  0  0  0  0  0  0  0  0  0  0
    1.4289    0.8250    0.0000 C   0  0  0  0  0  0  0  0  0  0  0  0
    2.1434    1.2375    0.0000 O   0  0  0  0  0  0  0  0  0  0  0  0
    2.8579    0.8250    0.0000 C   0  0  0  0  0  0  0  0  0  0  0  0
    3.5724    1.2375    0.0000 C   0  0  0  0  0  0  0  0  0  0  0  0
    2.8579   -0.0000    0.0000 C   0  0  0  0  0  0  0  0  0  0  0  0
    1.4289   -0.0000    0.0000 C   0  0  0  0  0  0  0  0  0  0  0  0
    0.7145   -0.4125    0.0000 C   0  0  0  0  0  0  0  0  0  0  0  0
    0.0000    0.0000    0.0000 C   0  0  0  0  0  0  0  0  0  0  0  0
    0.0000    0.8250    0.0000 C   0  0  0  0  0  0  0  0  0  0  0  0
  1  2  1  0  0  0  0
  2  3  1  0  0  0  0
  3  4  2  0  0  0  0
  3  5  1  0  0  0  0
  5  6  1  0  0  0  0
  6  7  2  0  0  0  0
  6 15  1  0  0  0  0
  7  8  1  0  0  0  0
  7 12  1  0  0  0  0
  8  9  1  0  0  0  0
  9 10  1  0  0  0  0
  9 11  1  0  0  0  0
 12 13  2  0  0  0  0
 13 14  1  0  0  0  0
 14 15  2  0  0  0  0
M  END
$$$$
copper-oxide
 OpenBabel03171423152D

  2  1  0  0  0  0  0  0  0  0999 V2000
    0.8250    0.0000    0.0000 O   0  0  0  0  0  0  0  0  0  0  0  0
    0.0000    0.0000    0.0000 Cu  0  0  0  0  0  0  0  0  0  0  0  0
  1  2  2  0  0  0  0
M  END
$$$$
Metalaxyl
 OpenBabel03171423152D

 20 20  0  0  0  0  0  0  0  0999 V2000
    2.1434   -2.0625    0.0000 C   0  0  0  0  0  0  0  0  0  0  0  0
    2.1434   -2.8875    0.0000 O   0  0  0  0  0  0  0  0  0  0  0  0
    2.8579   -3.3000    0.0000 C   0  0  0  0  0  0  0  0  0  0  0  0
    2.8579   -4.1250    0.0000 C   0  0  0  0  0  0  0  0  0  0  0  0
    2.1434   -4.5375    0.0000 O   0  0  0  0  0  0  0  0  0  0  0  0
    3.5724   -4.5375    0.0000 N   0  0  0  0  0  0  0  0  0  0  0  0
    4.2868   -4.1250    0.0000 C   0  0  3  0  0  0  0  0  0  0  0  0
    5.0013   -4.5375    0.0000 C   0  0  0  0  0  0  0  0  0  0  0  0
    4.2868   -3.3000    0.0000 C   0  0  0  0  0  0  0  0  0  0  0  0
    3.5724   -2.8875    0.0000 O   0  0  0  0  0  0  0  0  0  0  0  0
    5.0013   -2.8875    0.0000 O   0  0  0  0  0  0  0  0  0  0  0  0
    5.7158   -3.3000    0.0000 C   0  0  0  0  0  0  0  0  0  0  0  0
    3.5724   -5.3625    0.0000 C   0  0  0  0  0  0  0  0  0  0  0  0
    4.2868   -5.7750    0.0000 C   0  0  0  0  0  0  0  0  0  0  0  0
    5.0013   -5.3625    0.0000 C   0  0  0  0  0  0  0  0  0  0  0  0
    4.2868   -6.6000    0.0000 C   0  0  0  0  0  0  0  0  0  0  0  0
    3.5724   -7.0125    0.0000 C   0  0  0  0  0  0  0  0  0  0  0  0
    2.8579   -6.6000    0.0000 C   0  0  0  0  0  0  0  0  0  0  0  0
    2.8579   -5.7750    0.0000 C   0  0  0  0  0  0  0  0  0  0  0  0
    2.1434   -5.3625    0.0000 C   0  0  0  0  0  0  0  0  0  0  0  0
  1  2  1  0  0  0  0
  2  3  1  0  0  0  0
  3  4  1  0  0  0  0
  4  5  2  0  0  0  0
  4  6  1  0  0  0  0
  6  7  1  0  0  0  0
  6 13  1  0  0  0  0
  7  8  1  0  0  0  0
  7  9  1  0  0  0  0
  9 10  2  0  0  0  0
  9 11  1  0  0  0  0
 11 12  1  0  0  0  0
 13 14  2  0  0  0  0
 13 19  1  0  0  0  0
 14 15  1  0  0  0  0
 14 16  1  0  0  0  0
 16 17  2  0  0  0  0
 17 18  1  0  0  0  0
 18 19  2  0  0  0  0
 19 20  1  0  0  0  0
M  END
$$$$
etoxazole
 OpenBabel03171423152D

 26 28  0  0  0  0  0  0  0  0999 V2000
    3.5724   -0.4125    0.0000 C   0  0  0  0  0  0  0  0  0  0  0  0
    2.8579    0.0000    0.0000 C   0  0  0  0  0  0  0  0  0  0  0  0
    2.1434   -0.4125    0.0000 O   0  0  0  0  0  0  0  0  0  0  0  0
    1.4289    0.0000    0.0000 C   0  0  0  0  0  0  0  0  0  0  0  0
    0.7145   -0.4125    0.0000 C   0  0  0  0  0  0  0  0  0  0  0  0
    0.0000   -0.0000    0.0000 C   0  0  0  0  0  0  0  0  0  0  0  0
    0.0000    0.8250    0.0000 C   0  0  0  0  0  0  0  0  0  0  0  0
    0.7145    1.2375    0.0000 C   0  0  0  0  0  0  0  0  0  0  0  0
    1.4289    0.8250    0.0000 C   0  0  0  0  0  0  0  0  0  0  0  0
    0.7145    2.0625    0.0000 C   0  0  0  0  0  0  0  0  0  0  0  0
    0.7145    2.8875    0.0000 C   0  0  0  0  0  0  0  0  0  0  0  0
   -0.1105    2.0625    0.0000 C   0  0  0  0  0  0  0  0  0  0  0  0
    1.5395    2.0625    0.0000 C   0  0  0  0  0  0  0  0  0  0  0  0
    0.7145   -1.2375    0.0000 C   0  0  3  0  0  0  0  0  0  0  0  0
    1.3819   -1.7224    0.0000 C   0  0  0  0  0  0  0  0  0  0  0  0
    1.1270   -2.5070    0.0000 O   0  0  0  0  0  0  0  0  0  0  0  0
    0.3020   -2.5070    0.0000 C   0  0  0  0  0  0  0  0  0  0  0  0
    0.0470   -1.7224    0.0000 N   0  0  0  0  0  0  0  0  0  0  0  0
   -0.1830   -3.1745    0.0000 C   0  0  0  0  0  0  0  0  0  0  0  0
    0.1526   -3.9282    0.0000 C   0  0  0  0  0  0  0  0  0  0  0  0
    0.9731   -4.0144    0.0000 F   0  0  0  0  0  0  0  0  0  0  0  0
   -0.3323   -4.5956    0.0000 C   0  0  0  0  0  0  0  0  0  0  0  0
   -1.1528   -4.5094    0.0000 C   0  0  0  0  0  0  0  0  0  0  0  0
   -1.4884   -3.7557    0.0000 C   0  0  0  0  0  0  0  0  0  0  0  0
   -1.0034   -3.0882    0.0000 C   0  0  0  0  0  0  0  0  0  0  0  0
   -1.3390   -2.3346    0.0000 F   0  0  0  0  0  0  0  0  0  0  0  0
  1  2  1  0  0  0  0
  2  3  1  0  0  0  0
  3  4  1  0  0  0  0
  4  5  2  0  0  0  0
  4  9  1  0  0  0  0
  5  6  1  0  0  0  0
  5 14  1  0  0  0  0
  6  7  2  0  0  0  0
  7  8  1  0  0  0  0
  8  9  2  0  0  0  0
  8 10  1  0  0  0  0
 10 11  1  0  0  0  0
 10 12  1  0  0  0  0
 10 13  1  0  0  0  0
 14 15  1  0  0  0  0
 14 18  1  0  0  0  0
 15 16  1  0  0  0  0
 16 17  1  0  0  0  0
 17 18  2  0  0  0  0
 17 19  1  0  0  0  0
 19 20  2  0  0  0  0
 19 25  1  0  0  0  0
 20 21  1  0  0  0  0
 20 22  1  0  0  0  0
 22 23  2  0  0  0  0
 23 24  1  0  0  0  0
 24 25  2  0  0  0  0
 25 26  1  0  0  0  0
M  END
$$$$
2-methyl-2-(methylthio)propanal O-(N-methylcarbamoyl)oxime
 OpenBabel03171423152D

 12 11  0  0  0  0  0  0  0  0999 V2000
    3.3000    1.4289    0.0000 C   0  0  0  0  0  0  0  0  0  0  0  0
    2.4750    1.4289    0.0000 N   0  0  0  0  0  0  0  0  0  0  0  0
    2.0625    0.7145    0.0000 C   0  0  0  0  0  0  0  0  0  0  0  0
    2.4750    0.0000    0.0000 O   0  0  0  0  0  0  0  0  0  0  0  0
    1.2375    0.7145    0.0000 O   0  0  0  0  0  0  0  0  0  0  0  0
    0.8250    0.0000    0.0000 N   0  0  0  0  0  0  0  0  0  0  0  0
    0.0000    0.0000    0.0000 C   0  0  0  0  0  0  0  0  0  0  0  0
   -0.4125   -0.7145    0.0000 C   0  0  0  0  0  0  0  0  0  0  0  0
   -1.1270   -0.3020    0.0000 C   0  0  0  0  0  0  0  0  0  0  0  0
    0.3020   -1.1270    0.0000 C   0  0  0  0  0  0  0  0  0  0  0  0
   -0.8250   -1.4289    0.0000 S   0  0  0  0  0  0  0  0  0  0  0  0
   -0.4125   -2.1434    0.0000 C   0  0  0  0  0  0  0  0  0  0  0  0
  1  2  1  0  0  0  0
  2  3  1  0  0  0  0
  3  4  2  0  0  0  0
  3  5  1  0  0  0  0
  6  5  1  0  0  0  0
  6  7  2  3  0  0  0
  7  8  1  0  0  0  0
  8  9  1  0  0  0  0
  8 10  1  0  0  0  0
  8 11  1  0  0  0  0
 11 12  1  0  0  0  0
M  END
$$$$
Carbofuran
 OpenBabel03171423152D

 16 17  0  0  0  0  0  0  0  0999 V2000
    4.7079    3.7125    0.0000 C   0  0  0  0  0  0  0  0  0  0  0  0
    3.9934    3.3000    0.0000 N   0  0  0  0  0  0  0  0  0  0  0  0
    3.9934    2.4750    0.0000 C   0  0  0  0  0  0  0  0  0  0  0  0
    4.7079    2.0625    0.0000 O   0  0  0  0  0  0  0  0  0  0  0  0
    3.2789    2.0625    0.0000 O   0  0  0  0  0  0  0  0  0  0  0  0
    3.2789    1.2375    0.0000 C   0  0  0  0  0  0  0  0  0  0  0  0
    3.9934    0.8250    0.0000 C   0  0  0  0  0  0  0  0  0  0  0  0
    3.9934    0.0000    0.0000 C   0  0  0  0  0  0  0  0  0  0  0  0
    3.2789   -0.4125    0.0000 C   0  0  0  0  0  0  0  0  0  0  0  0
    2.5645    0.0000    0.0000 C   0  0  0  0  0  0  0  0  0  0  0  0
    2.5645    0.8250    0.0000 C   0  0  0  0  0  0  0  0  0  0  0  0
    1.7798    1.0799    0.0000 O   0  0  0  0  0  0  0  0  0  0  0  0
    1.2949    0.4125    0.0000 C   0  0  0  0  0  0  0  0  0  0  0  0
    0.6818    0.9645    0.0000 C   0  0  0  0  0  0  0  0  0  0  0  0
    0.6818   -0.1395    0.0000 C   0  0  0  0  0  0  0  0  0  0  0  0
    1.7798   -0.2549    0.0000 C   0  0  0  0  0  0  0  0  0  0  0  0
  1  2  1  0  0  0  0
  2  3  1  0  0  0  0
  3  4  2  0  0  0  0
  3  5  1  0  0  0  0
  5  6  1  0  0  0  0
  6  7  2  0  0  0  0
  6 11  1  0  0  0  0
  7  8  1  0  0  0  0
  8  9  2  0  0  0  0
  9 10  1  0  0  0  0
 10 11  2  0  0  0  0
 10 16  1  0  0  0  0
 11 12  1  0  0  0  0
 12 13  1  0  0  0  0
 13 14  1  0  0  0  0
 13 15  1  0  0  0  0
 13 16  1  0  0  0  0
M  END
$$$$
Lith
 OpenBabel03171423152D

  1  0  0  0  0  0  0  0  0  0999 V2000
    0.0000    0.0000    0.0000 Li  0  0  0  0  0 15  0  0  0  0  0  0
M  END
>  <type>
systematic

$$$$
aminomethanenitrile
 OpenBabel03171423152D

  3  2  0  0  0  0  0  0  0  0999 V2000
    1.6500   -0.0000    0.0000 N   0  0  0  0  0  0  0  0  0  0  0  0
    2.4750   -0.0000    0.0000 C   0  0  0  0  0  0  0  0  0  0  0  0
    3.3000    0.0000    0.0000 N   0  0  0  0  0  0  0  0  0  0  0  0
  1  2  1  0  0  0  0
  2  3  3  0  0  0  0
M  END
$$$$
Gencor
 OpenBabel03171423152D

 19 18  0  0  0  0  0  0  0  0999 V2000
   -3.9552    1.8414    0.0000 C   0  0  0  0  0  0  0  0  0  0  0  0
   -3.2408    1.4289    0.0000 C   0  0  0  0  0  0  0  0  0  0  0  0
   -2.5263    1.8414    0.0000 O   0  0  0  0  0  0  0  0  0  0  0  0
   -1.8118    1.4289    0.0000 C   0  0  0  0  0  0  0  0  0  0  0  0
   -1.8118    0.6039    0.0000 O   0  0  0  0  0  0  0  0  0  0  0  0
   -1.0974    1.8414    0.0000 C   0  0  0  0  0  0  0  0  0  0  0  0
   -0.3829    1.4289    0.0000 C   0  0  0  0  0  0  0  0  0  0  0  0
   -0.3829    0.6039    0.0000 C   0  0  0  0  0  0  0  0  0  0  0  0
    0.3316    1.8414    0.0000 C   0  0  0  0  0  0  0  0  0  0  0  0
    1.0461    1.4289    0.0000 C   0  0  0  0  0  0  0  0  0  0  0  0
    1.7605    1.8414    0.0000 C   0  0  0  0  0  0  0  0  0  0  0  0
    2.4750    1.4289    0.0000 C   0  0  3  0  0  0  0  0  0  0  0  0
    2.4750    0.6039    0.0000 C   0  0  0  0  0  0  0  0  0  0  0  0
    3.1895    1.8414    0.0000 C   0  0  0  0  0  0  0  0  0  0  0  0
    3.9039    1.4289    0.0000 C   0  0  0  0  0  0  0  0  0  0  0  0
    4.6184    1.8414    0.0000 C   0  0  0  0  0  0  0  0  0  0  0  0
    5.3329    1.4289    0.0000 C   0  0  0  0  0  0  0  0  0  0  0  0
    6.0474    1.8414    0.0000 C   0  0  0  0  0  0  0  0  0  0  0  0
    5.3329    0.6039    0.0000 C   0  0  0  0  0  0  0  0  0  0  0  0
  1  2  1  0  0  0  0
  2  3  1  0  0  0  0
  3  4  1  0  0  0  0
  4  5  2  0  0  0  0
  4  6  1  0  0  0  0
  6  7  2  0  0  0  0
  7  8  1  0  0  0  0
  7  9  1  0  0  0  0
  9 10  2  0  0  0  0
 10 11  1  0  0  0  0
 11 12  1  0  0  0  0
 12 13  1  0  0  0  0
 12 14  1  0  0  0  0
 14 15  1  0  0  0  0
 15 16  1  0  0  0  0
 16 17  1  0  0  0  0
 17 18  1  0  0  0  0
 17 19  1  0  0  0  0
M  END
$$$$
EDTA, sodium salt
 OpenBabel03171423152D

 24 19  0  0  0  0  0  0  0  0999 V2000
    0.0000    0.0000    0.0000 Na  0  3  0  0  0 15  0  0  0  0  0  0
    1.0018    0.0000    0.0000 Na  0  3  0  0  0 15  0  0  0  0  0  0
    2.0036    0.0000    0.0000 Na  0  3  0  0  0 15  0  0  0  0  0  0
    0.0000   -4.3784    0.0000 Na  0  3  0  0  0 15  0  0  0  0  0  0
    4.8219   -2.5855    0.0000 O   0  5  0  0  0  0  0  0  0  0  0  0
    5.6320   -2.4296    0.0000 C   0  0  0  0  0  0  0  0  0  0  0  0
    5.9021   -1.6500    0.0000 O   0  0  0  0  0  0  0  0  0  0  0  0
    6.1721   -3.0532    0.0000 C   0  0  0  0  0  0  0  0  0  0  0  0
    5.9021   -3.8327    0.0000 N   0  0  0  0  0  0  0  0  0  0  0  0
    5.0919   -3.9887    0.0000 C   0  0  0  0  0  0  0  0  0  0  0  0
    4.8219   -4.7682    0.0000 C   0  0  0  0  0  0  0  0  0  0  0  0
    4.0117   -4.9241    0.0000 N   0  0  0  0  0  0  0  0  0  0  0  0
    3.7417   -5.7037    0.0000 C   0  0  0  0  0  0  0  0  0  0  0  0
    4.2818   -6.3273    0.0000 C   0  0  0  0  0  0  0  0  0  0  0  0
    5.0919   -6.1714    0.0000 O   0  5  0  0  0  0  0  0  0  0  0  0
    4.0117   -7.1069    0.0000 O   0  0  0  0  0  0  0  0  0  0  0  0
    3.4717   -4.3005    0.0000 C   0  0  0  0  0  0  0  0  0  0  0  0
    2.6615   -4.4564    0.0000 C   0  0  0  0  0  0  0  0  0  0  0  0
    2.1214   -3.8327    0.0000 O   0  5  0  0  0  0  0  0  0  0  0  0
    2.3915   -5.2359    0.0000 O   0  0  0  0  0  0  0  0  0  0  0  0
    6.4421   -4.4564    0.0000 C   0  0  0  0  0  0  0  0  0  0  0  0
    7.2523   -4.3005    0.0000 C   0  0  0  0  0  0  0  0  0  0  0  0
    7.5223   -3.5209    0.0000 O   0  5  0  0  0  0  0  0  0  0  0  0
    7.7924   -4.9241    0.0000 O   0  0  0  0  0  0  0  0  0  0  0  0
  5  6  1  0  0  0  0
  6  7  2  0  0  0  0
  6  8  1  0  0  0  0
  8  9  1  0  0  0  0
  9 10  1  0  0  0  0
  9 21  1  0  0  0  0
 10 11  1  0  0  0  0
 11 12  1  0  0  0  0
 12 13  1  0  0  0  0
 12 17  1  0  0  0  0
 13 14  1  0  0  0  0
 14 15  1  0  0  0  0
 14 16  2  0  0  0  0
 17 18  1  0  0  0  0
 18 19  1  0  0  0  0
 18 20  2  0  0  0  0
 21 22  1  0  0  0  0
 22 23  1  0  0  0  0
 22 24  2  0  0  0  0
M  CHG  8   1   1   2   1   3   1   4   1   5  -1  15  -1  19  -1  23  -1
M  END
>  <type>
common

$$$$
2-allyloxyethanol
 OpenBabel03171423152D

  7  6  0  0  0  0  0  0  0  0999 V2000
    1.7605    1.8414    0.0000 O   0  0  0  0  0  0  0  0  0  0  0  0
    2.4750    1.4289    0.0000 C   0  0  0  0  0  0  0  0  0  0  0  0
    3.1895    1.8414    0.0000 C   0  0  0  0  0  0  0  0  0  0  0  0
    3.9039    1.4289    0.0000 O   0  0  0  0  0  0  0  0  0  0  0  0
    4.6184    1.8414    0.0000 C   0  0  0  0  0  0  0  0  0  0  0  0
    5.3329    1.4289    0.0000 C   0  0  0  0  0  0  0  0  0  0  0  0
    6.0474    1.8414    0.0000 C   0  0  0  0  0  0  0  0  0  0  0  0
  1  2  1  0  0  0  0
  2  3  1  0  0  0  0
  3  4  1  0  0  0  0
  4  5  1  0  0  0  0
  5  6  1  0  0  0  0
  6  7  2  0  0  0  0
M  END
$$$$
Esfenvalerate
 OpenBabel03171423152D

 30 32  0  0  1  0  0  0  0  0999 V2000
    0.7145   -2.6664    0.0000 C   0  0  0  0  0  0  0  0  0  0  0  0
    0.3020   -1.9520    0.0000 C   0  0  0  0  0  0  0  0  0  0  0  0
   -0.5230   -1.9520    0.0000 C   0  0  0  0  0  0  0  0  0  0  0  0
    0.7145   -1.2375    0.0000 C   0  0  2  0  0  0  0  0  0  0  0  0
    1.5395   -1.2375    0.0000 C   0  0  0  0  0  0  0  0  0  0  0  0
    1.9520   -0.5230    0.0000 O   0  0  0  0  0  0  0  0  0  0  0  0
    1.9520   -1.9520    0.0000 O   0  0  0  0  0  0  0  0  0  0  0  0
    2.7770   -1.9520    0.0000 C   0  0  2  0  0  0  0  0  0  0  0  0
    3.1895   -1.2375    0.0000 C   0  0  0  0  0  0  0  0  0  0  0  0
    3.6020   -0.5230    0.0000 N   0  0  0  0  0  0  0  0  0  0  0  0
    3.1895   -2.6664    0.0000 C   0  0  0  0  0  0  0  0  0  0  0  0
    4.0145   -2.6664    0.0000 C   0  0  0  0  0  0  0  0  0  0  0  0
    4.4270   -3.3809    0.0000 C   0  0  0  0  0  0  0  0  0  0  0  0
    5.2520   -3.3809    0.0000 O   0  0  0  0  0  0  0  0  0  0  0  0
    5.6645   -4.0954    0.0000 C   0  0  0  0  0  0  0  0  0  0  0  0
    6.4895   -4.0954    0.0000 C   0  0  0  0  0  0  0  0  0  0  0  0
    6.9020   -4.8099    0.0000 C   0  0  0  0  0  0  0  0  0  0  0  0
    6.4895   -5.5243    0.0000 C   0  0  0  0  0  0  0  0  0  0  0  0
    5.6645   -5.5243    0.0000 C   0  0  0  0  0  0  0  0  0  0  0  0
    5.2520   -4.8099    0.0000 C   0  0  0  0  0  0  0  0  0  0  0  0
    4.0145   -4.0954    0.0000 C   0  0  0  0  0  0  0  0  0  0  0  0
    3.1895   -4.0954    0.0000 C   0  0  0  0  0  0  0  0  0  0  0  0
    2.7770   -3.3809    0.0000 C   0  0  0  0  0  0  0  0  0  0  0  0
    0.3020   -0.5230    0.0000 C   0  0  0  0  0  0  0  0  0  0  0  0
   -0.5230   -0.5230    0.0000 C   0  0  0  0  0  0  0  0  0  0  0  0
   -0.9355    0.1914    0.0000 C   0  0  0  0  0  0  0  0  0  0  0  0
   -0.5230    0.9059    0.0000 C   0  0  0  0  0  0  0  0  0  0  0  0
   -0.9355    1.6204    0.0000 Cl  0  0  0  0  0  0  0  0  0  0  0  0
    0.3020    0.9059    0.0000 C   0  0  0  0  0  0  0  0  0  0  0  0
    0.7145    0.1914    0.0000 C   0  0  0  0  0  0  0  0  0  0  0  0
  1  2  1  0  0  0  0
  2  3  1  0  0  0  0
  4  2  1  1  0  0  0
  4  5  1  0  0  0  0
  4 24  1  0  0  0  0
  5  6  2  0  0  0  0
  5  7  1  0  0  0  0
  8  7  1  6  0  0  0
  8  9  1  0  0  0  0
  8 11  1  0  0  0  0
  9 10  3  0  0  0  0
 11 12  2  0  0  0  0
 11 23  1  0  0  0  0
 12 13  1  0  0  0  0
 13 14  1  0  0  0  0
 13 21  2  0  0  0  0
 14 15  1  0  0  0  0
 15 16  2  0  0  0  0
 15 20  1  0  0  0  0
 16 17  1  0  0  0  0
 17 18  2  0  0  0  0
 18 19  1  0  0  0  0
 19 20  2  0  0  0  0
 21 22  1  0  0  0  0
 22 23  2  0  0  0  0
 24 25  2  0  0  0  0
 24 30  1  0  0  0  0
 25 26  1  0  0  0  0
 26 27  2  0  0  0  0
 27 28  1  0  0  0  0
 27 29  1  0  0  0  0
 29 30  2  0  0  0  0
M  END
$$$$
acequinocyl
 OpenBabel03171423152D

 28 29  0  0  0  0  0  0  0  0999 V2000
   -9.2881   -1.2375    0.0000 C   0  0  0  0  0  0  0  0  0  0  0  0
   -8.5737   -1.6500    0.0000 C   0  0  0  0  0  0  0  0  0  0  0  0
   -7.8592   -1.2375    0.0000 C   0  0  0  0  0  0  0  0  0  0  0  0
   -7.1447   -1.6500    0.0000 C   0  0  0  0  0  0  0  0  0  0  0  0
   -6.4302   -1.2375    0.0000 C   0  0  0  0  0  0  0  0  0  0  0  0
   -5.7158   -1.6500    0.0000 C   0  0  0  0  0  0  0  0  0  0  0  0
   -5.0013   -1.2375    0.0000 C   0  0  0  0  0  0  0  0  0  0  0  0
   -4.2868   -1.6500    0.0000 C   0  0  0  0  0  0  0  0  0  0  0  0
   -3.5724   -1.2375    0.0000 C   0  0  0  0  0  0  0  0  0  0  0  0
   -2.8579   -1.6500    0.0000 C   0  0  0  0  0  0  0  0  0  0  0  0
   -2.1434   -1.2375    0.0000 C   0  0  0  0  0  0  0  0  0  0  0  0
   -1.4289   -1.6500    0.0000 C   0  0  0  0  0  0  0  0  0  0  0  0
   -0.7145   -1.2375    0.0000 C   0  0  0  0  0  0  0  0  0  0  0  0
    0.0000   -1.6500    0.0000 C   0  0  0  0  0  0  0  0  0  0  0  0
    0.0000   -2.4750    0.0000 O   0  0  0  0  0  0  0  0  0  0  0  0
    0.7145   -2.8875    0.0000 C   0  0  0  0  0  0  0  0  0  0  0  0
    1.4289   -2.4750    0.0000 C   0  0  0  0  0  0  0  0  0  0  0  0
    0.7145   -3.7125    0.0000 O   0  0  0  0  0  0  0  0  0  0  0  0
    0.7145   -1.2375    0.0000 C   0  0  0  0  0  0  0  0  0  0  0  0
    1.4289   -1.6500    0.0000 O   0  0  0  0  0  0  0  0  0  0  0  0
    0.7145   -0.4125    0.0000 C   0  0  0  0  0  0  0  0  0  0  0  0
    0.0000   -0.0000    0.0000 C   0  0  0  0  0  0  0  0  0  0  0  0
    0.0000    0.8250    0.0000 C   0  0  0  0  0  0  0  0  0  0  0  0
    0.7145    1.2375    0.0000 C   0  0  0  0  0  0  0  0  0  0  0  0
    1.4289    0.8250    0.0000 C   0  0  0  0  0  0  0  0  0  0  0  0
    1.4289   -0.0000    0.0000 C   0  0  0  0  0  0  0  0  0  0  0  0
   -0.7145   -0.4125    0.0000 C   0  0  0  0  0  0  0  0  0  0  0  0
   -1.4289   -0.0000    0.0000 O   0  0  0  0  0  0  0  0  0  0  0  0
  1  2  1  0  0  0  0
  2  3  1  0  0  0  0
  3  4  1  0  0  0  0
  4  5  1  0  0  0  0
  5  6  1  0  0  0  0
  6  7  1  0  0  0  0
  7  8  1  0  0  0  0
  8  9  1  0  0  0  0
  9 10  1  0  0  0  0
 10 11  1  0  0  0  0
 11 12  1  0  0  0  0
 12 13  1  0  0  0  0
 13 14  2  0  0  0  0
 13 27  1  0  0  0  0
 14 15  1  0  0  0  0
 14 19  1  0  0  0  0
 15 16  1  0  0  0  0
 16 17  1  0  0  0  0
 16 18  2  0  0  0  0
 19 20  2  0  0  0  0
 19 21  1  0  0  0  0
 21 22  2  0  0  0  0
 21 26  1  0  0  0  0
 22 23  1  0  0  0  0
 22 27  1  0  0  0  0
 23 24  2  0  0  0  0
 24 25  1  0  0  0  0
 25 26  2  0  0  0  0
 27 28  2  0  0  0  0
M  END
$$$$
Cephalon
 OpenBabel03171423152D

 15 15  0  0  0  0  0  0  0  0999 V2000
   -0.7145    4.5375    0.0000 C   0  0  0  0  0  0  0  0  0  0  0  0
   -0.7145    3.7125    0.0000 O   0  0  0  0  0  0  0  0  0  0  0  0
    0.0000    3.3000    0.0000 N   0  0  0  0  0  0  0  0  0  0  0  0
    0.7145    3.7125    0.0000 C   0  0  0  0  0  0  0  0  0  0  0  0
    0.0000    2.4750    0.0000 C   0  0  0  0  0  0  0  0  0  0  0  0
   -0.7145    2.0625    0.0000 O   0  0  0  0  0  0  0  0  0  0  0  0
    0.7145    2.0625    0.0000 N   0  0  0  0  0  0  0  0  0  0  0  0
    0.7145    1.2375    0.0000 C   0  0  0  0  0  0  0  0  0  0  0  0
    1.4289    0.8250    0.0000 C   0  0  0  0  0  0  0  0  0  0  0  0
    1.4289   -0.0000    0.0000 C   0  0  0  0  0  0  0  0  0  0  0  0
    0.7145   -0.4125    0.0000 C   0  0  0  0  0  0  0  0  0  0  0  0
    0.7145   -1.2375    0.0000 Cl  0  0  0  0  0  0  0  0  0  0  0  0
    0.0000    0.0000    0.0000 C   0  0  0  0  0  0  0  0  0  0  0  0
   -0.7145   -0.4125    0.0000 Cl  0  0  0  0  0  0  0  0  0  0  0  0
    0.0000    0.8250    0.0000 C   0  0  0  0  0  0  0  0  0  0  0  0
  1  2  1  0  0  0  0
  2  3  1  0  0  0  0
  3  4  1  0  0  0  0
  3  5  1  0  0  0  0
  5  6  1  0  0  0  0
  5  7  2  3  0  0  0
  7  8  1  0  0  0  0
  8  9  2  0  0  0  0
  8 15  1  0  0  0  0
  9 10  1  0  0  0  0
 10 11  2  0  0  0  0
 11 12  1  0  0  0  0
 11 13  1  0  0  0  0
 13 14  1  0  0  0  0
 13 15  2  0  0  0  0
M  END
>  <type>
common

$$$$
oleic acid
 OpenBabel03171423152D

 20 19  0  0  0  0  0  0  0  0999 V2000
   -1.2888    7.5059    0.0000 C   0  0  0  0  0  0  0  0  0  0  0  0
   -0.5743    7.0934    0.0000 C   0  0  0  0  0  0  0  0  0  0  0  0
   -0.5743    6.2684    0.0000 C   0  0  0  0  0  0  0  0  0  0  0  0
    0.1401    5.8559    0.0000 C   0  0  0  0  0  0  0  0  0  0  0  0
    0.1401    5.0309    0.0000 C   0  0  0  0  0  0  0  0  0  0  0  0
    0.8546    4.6184    0.0000 C   0  0  0  0  0  0  0  0  0  0  0  0
    0.8546    3.7934    0.0000 C   0  0  0  0  0  0  0  0  0  0  0  0
    1.5691    3.3809    0.0000 C   0  0  0  0  0  0  0  0  0  0  0  0
    1.5691    2.5559    0.0000 C   0  0  0  0  0  0  0  0  0  0  0  0
    2.2836    2.1434    0.0000 C   0  0  0  0  0  0  0  0  0  0  0  0
    2.9980    2.5559    0.0000 C   0  0  0  0  0  0  0  0  0  0  0  0
    3.7125    2.1434    0.0000 C   0  0  0  0  0  0  0  0  0  0  0  0
    4.4270    2.5559    0.0000 C   0  0  0  0  0  0  0  0  0  0  0  0
    5.1414    2.1434    0.0000 C   0  0  0  0  0  0  0  0  0  0  0  0
    5.8559    2.5559    0.0000 C   0  0  0  0  0  0  0  0  0  0  0  0
    6.5704    2.1434    0.0000 C   0  0  0  0  0  0  0  0  0  0  0  0
    7.2849    2.5559    0.0000 C   0  0  0  0  0  0  0  0  0  0  0  0
    7.9993    2.1434    0.0000 C   0  0  0  0  0  0  0  0  0  0  0  0
    8.7138    2.5559    0.0000 O   0  0  0  0  0  0  0  0  0  0  0  0
    7.9993    1.3184    0.0000 O   0  0  0  0  0  0  0  0  0  0  0  0
  1  2  1  0  0  0  0
  2  3  1  0  0  0  0
  3  4  1  0  0  0  0
  4  5  1  0  0  0  0
  5  6  1  0  0  0  0
  6  7  1  0  0  0  0
  7  8  1  0  0  0  0
  8  9  1  0  0  0  0
  9 10  2  0  0  0  0
 10 11  1  0  0  0  0
 11 12  1  0  0  0  0
 12 13  1  0  0  0  0
 13 14  1  0  0  0  0
 14 15  1  0  0  0  0
 15 16  1  0  0  0  0
 16 17  1  0  0  0  0
 17 18  1  0  0  0  0
 18 19  1  0  0  0  0
 18 20  2  0  0  0  0
M  END
$$$$
Calcium hypochlorite
 OpenBabel03171423152D

  5  2  0  0  0  0  0  0  0  0999 V2000
    0.0000    0.0000    0.0000 Ca  0  2  0  0  0 15  0  0  0  0  0  0
    2.9464    0.0000    0.0000 O   0  5  0  0  0  0  0  0  0  0  0  0
    2.1214    0.0000    0.0000 Cl  0  0  0  0  0  0  0  0  0  0  0  0
    0.4125   -1.6500    0.0000 O   0  5  0  0  0  0  0  0  0  0  0  0
   -0.4125   -1.6500    0.0000 Cl  0  0  0  0  0  0  0  0  0  0  0  0
  2  3  1  0  0  0  0
  4  5  1  0  0  0  0
M  CHG  3   1   2   2  -1   4  -1
M  END
$$$$
N,N'-Diethyl-3-methylbenzamide
 OpenBabel03171423152D

 14 14  0  0  0  0  0  0  0  0999 V2000
   -0.7145    3.7125    0.0000 C   0  0  0  0  0  0  0  0  0  0  0  0
    0.0000    3.3000    0.0000 C   0  0  0  0  0  0  0  0  0  0  0  0
    0.0000    2.4750    0.0000 N   0  0  0  0  0  0  0  0  0  0  0  0
   -0.7145    2.0625    0.0000 C   0  0  0  0  0  0  0  0  0  0  0  0
   -0.7145    1.2375    0.0000 C   0  0  0  0  0  0  0  0  0  0  0  0
    0.7145    2.0625    0.0000 C   0  0  0  0  0  0  0  0  0  0  0  0
    1.4289    2.4750    0.0000 O   0  0  0  0  0  0  0  0  0  0  0  0
    0.7145    1.2375    0.0000 C   0  0  0  0  0  0  0  0  0  0  0  0
    1.4289    0.8250    0.0000 C   0  0  0  0  0  0  0  0  0  0  0  0
    1.4289   -0.0000    0.0000 C   0  0  0  0  0  0  0  0  0  0  0  0
    2.1434   -0.4125    0.0000 C   0  0  0  0  0  0  0  0  0  0  0  0
    0.7145   -0.4125    0.0000 C   0  0  0  0  0  0  0  0  0  0  0  0
    0.0000    0.0000    0.0000 C   0  0  0  0  0  0  0  0  0  0  0  0
    0.0000    0.8250    0.0000 C   0  0  0  0  0  0  0  0  0  0  0  0
  1  2  1  0  0  0  0
  2  3  1  0  0  0  0
  3  4  1  0  0  0  0
  3  6  1  0  0  0  0
  4  5  1  0  0  0  0
  6  7  2  0  0  0  0
  6  8  1  0  0  0  0
  8  9  2  0  0  0  0
  8 14  1  0  0  0  0
  9 10  1  0  0  0  0
 10 11  1  0  0  0  0
 10 12  2  0  0  0  0
 12 13  1  0  0  0  0
 13 14  2  0  0  0  0
M  END
$$$$
carbon-carbon
 OpenBabel03171423152D

  2  1  0  0  0  0  0  0  0  0999 V2000
    0.8250    0.0000    0.0000 C   0  0  0  0  0  0  0  0  0  0  0  0
    0.0000    0.0000    0.0000 C   0  0  0  0  0  0  0  0  0  0  0  0
  1  2  1  0  0  0  0
M  END
$$$$
Diethoxy-[(2-isopropyl-6-methyl-4-pyrimidinyl)oxy]-thioxophosphorane
 OpenBabel03171423152D

 19 19  0  0  0  0  0  0  0  0999 V2000
    2.8579    4.1250    0.0000 C   0  0  0  0  0  0  0  0  0  0  0  0
    2.1434    3.7125    0.0000 C   0  0  0  0  0  0  0  0  0  0  0  0
    2.1434    2.8875    0.0000 O   0  0  0  0  0  0  0  0  0  0  0  0
    1.4289    2.4750    0.0000 P   0  0  0  0  0  0  0  0  0  0  0  0
    1.0164    3.1895    0.0000 S   0  0  0  0  0  0  0  0  0  0  0  0
    1.8414    1.7605    0.0000 O   0  0  0  0  0  0  0  0  0  0  0  0
    2.6664    1.7605    0.0000 C   0  0  0  0  0  0  0  0  0  0  0  0
    3.0789    1.0461    0.0000 C   0  0  0  0  0  0  0  0  0  0  0  0
    0.7145    2.0625    0.0000 O   0  0  0  0  0  0  0  0  0  0  0  0
    0.7145    1.2375    0.0000 C   0  0  0  0  0  0  0  0  0  0  0  0
    1.4289    0.8250    0.0000 C   0  0  0  0  0  0  0  0  0  0  0  0
    1.4289   -0.0000    0.0000 C   0  0  0  0  0  0  0  0  0  0  0  0
    2.1434   -0.4125    0.0000 C   0  0  0  0  0  0  0  0  0  0  0  0
    0.7145   -0.4125    0.0000 N   0  0  0  0  0  0  0  0  0  0  0  0
    0.0000    0.0000    0.0000 C   0  0  0  0  0  0  0  0  0  0  0  0
    0.0000    0.8250    0.0000 N   0  0  0  0  0  0  0  0  0  0  0  0
   -0.7145   -0.4125    0.0000 C   0  0  0  0  0  0  0  0  0  0  0  0
   -0.7145   -1.2375    0.0000 C   0  0  0  0  0  0  0  0  0  0  0  0
   -1.4289    0.0000    0.0000 C   0  0  0  0  0  0  0  0  0  0  0  0
  1  2  1  0  0  0  0
  2  3  1  0  0  0  0
  3  4  1  0  0  0  0
  4  5  2  0  0  0  0
  4  6  1  0  0  0  0
  4  9  1  0  0  0  0
  6  7  1  0  0  0  0
  7  8  1  0  0  0  0
  9 10  1  0  0  0  0
 10 11  2  0  0  0  0
 10 16  1  0  0  0  0
 11 12  1  0  0  0  0
 12 13  1  0  0  0  0
 12 14  2  0  0  0  0
 14 15  1  0  0  0  0
 15 16  2  0  0  0  0
 15 17  1  0  0  0  0
 17 18  1  0  0  0  0
 17 19  1  0  0  0  0
M  END
$$$$
Derris
 OpenBabel03171423152D

 29 33  0  0  1  0  0  0  0  0999 V2000
    8.8716   -0.3333    0.0000 C   0  0  0  0  0  0  0  0  0  0  0  0
    8.4700    0.3874    0.0000 O   0  0  0  0  0  0  0  0  0  0  0  0
    7.6451    0.4000    0.0000 C   0  0  0  0  0  0  0  0  0  0  0  0
    7.2435    1.1206    0.0000 C   0  0  0  0  0  0  0  0  0  0  0  0
    6.4186    1.1332    0.0000 C   0  0  0  0  0  0  0  0  0  0  0  0
    5.9953    0.4250    0.0000 C   0  0  0  0  0  0  0  0  0  0  0  0
    6.3969   -0.2956    0.0000 C   0  0  0  0  0  0  0  0  0  0  0  0
    7.2218   -0.3082    0.0000 C   0  0  0  0  0  0  0  0  0  0  0  0
    7.6234   -1.0288    0.0000 O   0  0  0  0  0  0  0  0  0  0  0  0
    8.4483   -1.0414    0.0000 C   0  0  0  0  0  0  0  0  0  0  0  0
    5.1704    0.4376    0.0000 C   0  0  1  0  0  0  0  0  0  0  0  0
    4.7688    1.1583    0.0000 C   0  0  1  0  0  0  0  0  0  0  0  0
    5.1921    1.8664    0.0000 C   0  0  0  0  0  0  0  0  0  0  0  0
    6.0170    1.8538    0.0000 O   0  0  0  0  0  0  0  0  0  0  0  0
    3.9439    1.1708    0.0000 O   0  0  0  0  0  0  0  0  0  0  0  0
    3.5206    0.4627    0.0000 C   0  0  0  0  0  0  0  0  0  0  0  0
    3.9222   -0.2580    0.0000 C   0  0  0  0  0  0  0  0  0  0  0  0
    3.4988   -0.9661    0.0000 C   0  0  0  0  0  0  0  0  0  0  0  0
    2.6739   -0.9535    0.0000 C   0  0  0  0  0  0  0  0  0  0  0  0
    2.2724   -0.2329    0.0000 C   0  0  0  0  0  0  0  0  0  0  0  0
    2.6957    0.4752    0.0000 C   0  0  0  0  0  0  0  0  0  0  0  0
    2.1530    1.0967    0.0000 C   0  0  0  0  0  0  0  0  0  0  0  0
    1.3943    0.7726    0.0000 C   0  0  1  0  0  0  0  0  0  0  0  0
    1.4681   -0.0491    0.0000 O   0  0  0  0  0  0  0  0  0  0  0  0
    0.6862    1.1959    0.0000 C   0  0  0  0  0  0  0  0  0  0  0  0
   -0.0344    0.7943    0.0000 C   0  0  0  0  0  0  0  0  0  0  0  0
    0.6988    2.0208    0.0000 C   0  0  0  0  0  0  0  0  0  0  0  0
    4.7471   -0.2705    0.0000 C   0  0  0  0  0  0  0  0  0  0  0  0
    5.1487   -0.9912    0.0000 O   0  0  0  0  0  0  0  0  0  0  0  0
  1  2  1  0  0  0  0
  2  3  1  0  0  0  0
  3  4  2  0  0  0  0
  3  8  1  0  0  0  0
  4  5  1  0  0  0  0
  5  6  2  0  0  0  0
  5 14  1  0  0  0  0
  6  7  1  0  0  0  0
  7  8  2  0  0  0  0
  8  9  1  0  0  0  0
  9 10  1  0  0  0  0
 11  6  1  6  0  0  0
 11 12  1  0  0  0  0
 11 28  1  0  0  0  0
 12 13  1  6  0  0  0
 12 15  1  0  0  0  0
 13 14  1  0  0  0  0
 15 16  1  0  0  0  0
 16 17  2  0  0  0  0
 16 21  1  0  0  0  0
 17 18  1  0  0  0  0
 17 28  1  0  0  0  0
 18 19  2  0  0  0  0
 19 20  1  0  0  0  0
 20 21  2  0  0  0  0
 20 24  1  0  0  0  0
 21 22  1  0  0  0  0
 22 23  1  0  0  0  0
 23 24  1  0  0  0  0
 23 25  1  1  0  0  0
 25 26  1  0  0  0  0
 25 27  2  0  0  0  0
 28 29  2  0  0  0  0
M  END
$$$$
Copper triethanolamine
 OpenBabel03171423152D

 11  9  0  0  0  0  0  0  0  0999 V2000
    0.0000    0.0000    0.0000 N   0  0  0  0  0  0  0  0  0  0  0  0
   -0.4125   -0.7145    0.0000 C   0  0  3  0  0  0  0  0  0  0  0  0
   -1.2375   -0.7145    0.0000 C   0  0  0  0  0  0  0  0  0  0  0  0
    0.0000   -1.4289    0.0000 O   0  0  0  0  0  0  0  0  0  0  0  0
    0.8250    0.0000    0.0000 C   0  0  3  0  0  0  0  0  0  0  0  0
    1.2375    0.7145    0.0000 C   0  0  0  0  0  0  0  0  0  0  0  0
    1.2375   -0.7145    0.0000 O   0  0  0  0  0  0  0  0  0  0  0  0
   -0.4125    0.7145    0.0000 C   0  0  3  0  0  0  0  0  0  0  0  0
   -0.0000    1.4289    0.0000 C   0  0  0  0  0  0  0  0  0  0  0  0
   -1.2375    0.7145    0.0000 O   0  0  0  0  0  0  0  0  0  0  0  0
    3.3589    0.0000    0.0000 Cu  0  0  0  0  0 15  0  0  0  0  0  0
  1  2  1  0  0  0  0
  1  5  1  0  0  0  0
  1  8  1  0  0  0  0
  2  3  1  0  0  0  0
  2  4  1  0  0  0  0
  5  6  1  0  0  0  0
  5  7  1  0  0  0  0
  8  9  1  0  0  0  0
  8 10  1  0  0  0  0
M  END
>  <type>
systematic

$$$$
?-lactose
 OpenBabel03171423152D

 23 24  0  0  1  0  0  0  0  0999 V2000
    2.8579   -0.0000    0.0000 O   0  0  0  0  0  0  0  0  0  0  0  0
    2.1434   -0.4125    0.0000 C   0  0  0  0  0  0  0  0  0  0  0  0
    2.1434   -1.2375    0.0000 C   0  0  1  0  0  0  0  0  0  0  0  0
    1.4289   -1.6500    0.0000 O   0  0  0  0  0  0  0  0  0  0  0  0
    1.4289   -2.4750    0.0000 C   0  0  1  0  0  0  0  0  0  0  0  0
    0.7145   -2.8875    0.0000 O   0  0  0  0  0  0  0  0  0  0  0  0
    0.0000   -2.4750    0.0000 C   0  0  2  0  0  0  0  0  0  0  0  0
   -0.7145   -2.8875    0.0000 C   0  0  1  0  0  0  0  0  0  0  0  0
   -0.7145   -3.7125    0.0000 C   0  0  0  0  0  0  0  0  0  0  0  0
   -1.4289   -4.1250    0.0000 O   0  0  0  0  0  0  0  0  0  0  0  0
   -1.4289   -2.4750    0.0000 O   0  0  0  0  0  0  0  0  0  0  0  0
   -1.4289   -1.6500    0.0000 C   0  0  1  0  0  0  0  0  0  0  0  0
   -2.1434   -1.2375    0.0000 O   0  0  0  0  0  0  0  0  0  0  0  0
   -0.7145   -1.2375    0.0000 C   0  0  2  0  0  0  0  0  0  0  0  0
   -0.7145   -0.4125    0.0000 O   0  0  0  0  0  0  0  0  0  0  0  0
   -0.0000   -1.6500    0.0000 C   0  0  1  0  0  0  0  0  0  0  0  0
    0.7145   -1.2375    0.0000 O   0  0  0  0  0  0  0  0  0  0  0  0
    2.1434   -2.8875    0.0000 C   0  0  2  0  0  0  0  0  0  0  0  0
    2.1434   -3.7125    0.0000 O   0  0  0  0  0  0  0  0  0  0  0  0
    2.8579   -2.4750    0.0000 C   0  0  1  0  0  0  0  0  0  0  0  0
    3.5724   -2.8875    0.0000 O   0  0  0  0  0  0  0  0  0  0  0  0
    2.8579   -1.6500    0.0000 C   0  0  1  0  0  0  0  0  0  0  0  0
    3.5724   -1.2375    0.0000 O   0  0  0  0  0  0  0  0  0  0  0  0
  1  2  1  0  0  0  0
  3  2  1  6  0  0  0
  3  4  1  0  0  0  0
  3 22  1  0  0  0  0
  4  5  1  0  0  0  0
  5  6  1  6  0  0  0
  5 18  1  0  0  0  0
  7  6  1  6  0  0  0
  7  8  1  0  0  0  0
  7 16  1  0  0  0  0
  8  9  1  1  0  0  0
  8 11  1  0  0  0  0
  9 10  1  0  0  0  0
 11 12  1  0  0  0  0
 12 13  1  1  0  0  0
 12 14  1  0  0  0  0
 14 15  1  6  0  0  0
 14 16  1  0  0  0  0
 16 17  1  1  0  0  0
 18 19  1  1  0  0  0
 18 20  1  0  0  0  0
 20 21  1  6  0  0  0
 20 22  1  0  0  0  0
 22 23  1  6  0  0  0
M  END
$$$$
Cyclanilide
 OpenBabel03171423152D

 17 18  0  0  0  0  0  0  0  0999 V2000
    2.1434   -1.2375    0.0000 O   0  0  0  0  0  0  0  0  0  0  0  0
    1.4289   -1.6500    0.0000 C   0  0  0  0  0  0  0  0  0  0  0  0
    0.7145   -1.2375    0.0000 O   0  0  0  0  0  0  0  0  0  0  0  0
    1.4289   -2.4750    0.0000 C   0  0  3  0  0  0  0  0  0  0  0  0
    1.8414   -3.1895    0.0000 C   0  0  0  0  0  0  0  0  0  0  0  0
    1.0164   -3.1895    0.0000 C   0  0  3  0  0  0  0  0  0  0  0  0
    0.3020   -3.6020    0.0000 C   0  0  0  0  0  0  0  0  0  0  0  0
   -0.4125   -3.1895    0.0000 O   0  0  0  0  0  0  0  0  0  0  0  0
    0.3020   -4.4270    0.0000 N   0  0  0  0  0  0  0  0  0  0  0  0
   -0.4125   -4.8395    0.0000 C   0  0  0  0  0  0  0  0  0  0  0  0
   -0.4125   -5.6645    0.0000 C   0  0  0  0  0  0  0  0  0  0  0  0
   -1.1270   -6.0770    0.0000 C   0  0  0  0  0  0  0  0  0  0  0  0
   -1.8414   -5.6645    0.0000 C   0  0  0  0  0  0  0  0  0  0  0  0
   -2.5559   -6.0770    0.0000 Cl  0  0  0  0  0  0  0  0  0  0  0  0
   -1.8414   -4.8395    0.0000 C   0  0  0  0  0  0  0  0  0  0  0  0
   -1.1270   -4.4270    0.0000 C   0  0  0  0  0  0  0  0  0  0  0  0
   -1.1270   -3.6020    0.0000 Cl  0  0  0  0  0  0  0  0  0  0  0  0
  1  2  1  0  0  0  0
  2  3  2  0  0  0  0
  2  4  1  0  0  0  0
  4  5  1  0  0  0  0
  4  6  1  0  0  0  0
  5  6  1  0  0  0  0
  6  7  1  0  0  0  0
  7  8  2  0  0  0  0
  7  9  1  0  0  0  0
  9 10  1  0  0  0  0
 10 11  2  0  0  0  0
 10 16  1  0  0  0  0
 11 12  1  0  0  0  0
 12 13  2  0  0  0  0
 13 14  1  0  0  0  0
 13 15  1  0  0  0  0
 15 16  2  0  0  0  0
 16 17  1  0  0  0  0
M  END
>  <type>
common

$$$$
Chloropropham
 OpenBabel03171423152D

 14 14  0  0  0  0  0  0  0  0999 V2000
   -0.7145    4.5375    0.0000 C   0  0  0  0  0  0  0  0  0  0  0  0
   -0.7145    3.7125    0.0000 C   0  0  0  0  0  0  0  0  0  0  0  0
   -1.4289    3.3000    0.0000 C   0  0  0  0  0  0  0  0  0  0  0  0
    0.0000    3.3000    0.0000 O   0  0  0  0  0  0  0  0  0  0  0  0
    0.0000    2.4750    0.0000 C   0  0  0  0  0  0  0  0  0  0  0  0
   -0.7145    2.0625    0.0000 O   0  0  0  0  0  0  0  0  0  0  0  0
    0.7145    2.0625    0.0000 N   0  0  0  0  0  0  0  0  0  0  0  0
    0.7145    1.2375    0.0000 C   0  0  0  0  0  0  0  0  0  0  0  0
    1.4289    0.8250    0.0000 C   0  0  0  0  0  0  0  0  0  0  0  0
    1.4289   -0.0000    0.0000 C   0  0  0  0  0  0  0  0  0  0  0  0
    0.7145   -0.4125    0.0000 C   0  0  0  0  0  0  0  0  0  0  0  0
    0.0000    0.0000    0.0000 C   0  0  0  0  0  0  0  0  0  0  0  0
   -0.7145   -0.4125    0.0000 Cl  0  0  0  0  0  0  0  0  0  0  0  0
    0.0000    0.8250    0.0000 C   0  0  0  0  0  0  0  0  0  0  0  0
  1  2  1  0  0  0  0
  2  3  1  0  0  0  0
  2  4  1  0  0  0  0
  4  5  1  0  0  0  0
  5  6  1  0  0  0  0
  5  7  2  3  0  0  0
  7  8  1  0  0  0  0
  8  9  2  0  0  0  0
  8 14  1  0  0  0  0
  9 10  1  0  0  0  0
 10 11  2  0  0  0  0
 11 12  1  0  0  0  0
 12 13  1  0  0  0  0
 12 14  2  0  0  0  0
M  END
>  <type>
common

$$$$
3,6-Dichloro-2-pyridinecarboxylic acid
 OpenBabel03171423152D

 11 11  0  0  0  0  0  0  0  0999 V2000
    0.0000    2.4750    0.0000 O   0  0  0  0  0  0  0  0  0  0  0  0
    0.7145    2.0625    0.0000 C   0  0  0  0  0  0  0  0  0  0  0  0
    1.4289    2.4750    0.0000 O   0  0  0  0  0  0  0  0  0  0  0  0
    0.7145    1.2375    0.0000 C   0  0  0  0  0  0  0  0  0  0  0  0
    1.4289    0.8250    0.0000 N   0  0  0  0  0  0  0  0  0  0  0  0
    1.4289   -0.0000    0.0000 C   0  0  0  0  0  0  0  0  0  0  0  0
    2.1434   -0.4125    0.0000 Cl  0  0  0  0  0  0  0  0  0  0  0  0
    0.7145   -0.4125    0.0000 C   0  0  0  0  0  0  0  0  0  0  0  0
    0.0000    0.0000    0.0000 C   0  0  0  0  0  0  0  0  0  0  0  0
    0.0000    0.8250    0.0000 C   0  0  0  0  0  0  0  0  0  0  0  0
   -0.7145    1.2375    0.0000 Cl  0  0  0  0  0  0  0  0  0  0  0  0
  1  2  1  0  0  0  0
  2  3  2  0  0  0  0
  2  4  1  0  0  0  0
  4  5  2  0  0  0  0
  4 10  1  0  0  0  0
  5  6  1  0  0  0  0
  6  7  1  0  0  0  0
  6  8  2  0  0  0  0
  8  9  1  0  0  0  0
  9 10  2  0  0  0  0
 10 11  1  0  0  0  0
M  END
$$$$
flurprimidol
 OpenBabel03171423152D

 22 23  0  0  0  0  0  0  0  0999 V2000
   -0.5230   -1.9520    0.0000 C   0  0  0  0  0  0  0  0  0  0  0  0
   -0.1105   -1.2375    0.0000 C   0  0  0  0  0  0  0  0  0  0  0  0
   -0.5230   -0.5230    0.0000 C   0  0  0  0  0  0  0  0  0  0  0  0
    0.7145   -1.2375    0.0000 C   0  0  3  0  0  0  0  0  0  0  0  0
    1.5395   -1.2375    0.0000 O   0  0  0  0  0  0  0  0  0  0  0  0
    0.7145   -2.0625    0.0000 C   0  0  0  0  0  0  0  0  0  0  0  0
    1.4289   -2.4750    0.0000 C   0  0  0  0  0  0  0  0  0  0  0  0
    1.4289   -3.3000    0.0000 C   0  0  0  0  0  0  0  0  0  0  0  0
    0.7145   -3.7125    0.0000 C   0  0  0  0  0  0  0  0  0  0  0  0
    0.7145   -4.5375    0.0000 O   0  0  0  0  0  0  0  0  0  0  0  0
    0.0000   -4.9500    0.0000 C   0  0  0  0  0  0  0  0  0  0  0  0
   -0.7145   -5.3625    0.0000 F   0  0  0  0  0  0  0  0  0  0  0  0
    0.4125   -5.6645    0.0000 F   0  0  0  0  0  0  0  0  0  0  0  0
   -0.4125   -4.2355    0.0000 F   0  0  0  0  0  0  0  0  0  0  0  0
    0.0000   -3.3000    0.0000 C   0  0  0  0  0  0  0  0  0  0  0  0
    0.0000   -2.4750    0.0000 C   0  0  0  0  0  0  0  0  0  0  0  0
    0.7145   -0.4125    0.0000 C   0  0  0  0  0  0  0  0  0  0  0  0
    0.0000    0.0000    0.0000 C   0  0  0  0  0  0  0  0  0  0  0  0
    0.0000    0.8250    0.0000 N   0  0  0  0  0  0  0  0  0  0  0  0
    0.7145    1.2375    0.0000 C   0  0  0  0  0  0  0  0  0  0  0  0
    1.4289    0.8250    0.0000 N   0  0  0  0  0  0  0  0  0  0  0  0
    1.4289   -0.0000    0.0000 C   0  0  0  0  0  0  0  0  0  0  0  0
  1  2  1  0  0  0  0
  2  3  1  0  0  0  0
  2  4  1  0  0  0  0
  4  5  1  0  0  0  0
  4  6  1  0  0  0  0
  4 17  1  0  0  0  0
  6  7  2  0  0  0  0
  6 16  1  0  0  0  0
  7  8  1  0  0  0  0
  8  9  2  0  0  0  0
  9 10  1  0  0  0  0
  9 15  1  0  0  0  0
 10 11  1  0  0  0  0
 11 12  1  0  0  0  0
 11 13  1  0  0  0  0
 11 14  1  0  0  0  0
 15 16  2  0  0  0  0
 17 18  2  0  0  0  0
 17 22  1  0  0  0  0
 18 19  1  0  0  0  0
 19 20  2  0  0  0  0
 20 21  1  0  0  0  0
 21 22  2  0  0  0  0
M  END
>  <type>
common

$$$$
2-Butoxyethanol Acetate
 OpenBabel03171423152D

 11 10  0  0  0  0  0  0  0  0999 V2000
    2.2836    2.1434    0.0000 C   0  0  0  0  0  0  0  0  0  0  0  0
    2.9980    2.5559    0.0000 C   0  0  0  0  0  0  0  0  0  0  0  0
    3.7125    2.1434    0.0000 C   0  0  0  0  0  0  0  0  0  0  0  0
    4.4270    2.5559    0.0000 C   0  0  0  0  0  0  0  0  0  0  0  0
    5.1414    2.1434    0.0000 O   0  0  0  0  0  0  0  0  0  0  0  0
    5.8559    2.5559    0.0000 C   0  0  0  0  0  0  0  0  0  0  0  0
    6.5704    2.1434    0.0000 C   0  0  0  0  0  0  0  0  0  0  0  0
    7.2849    2.5559    0.0000 O   0  0  0  0  0  0  0  0  0  0  0  0
    7.9993    2.1434    0.0000 C   0  0  0  0  0  0  0  0  0  0  0  0
    8.7138    2.5559    0.0000 C   0  0  0  0  0  0  0  0  0  0  0  0
    7.9993    1.3184    0.0000 O   0  0  0  0  0  0  0  0  0  0  0  0
  1  2  1  0  0  0  0
  2  3  1  0  0  0  0
  3  4  1  0  0  0  0
  4  5  1  0  0  0  0
  5  6  1  0  0  0  0
  6  7  1  0  0  0  0
  7  8  1  0  0  0  0
  8  9  1  0  0  0  0
  9 10  1  0  0  0  0
  9 11  2  0  0  0  0
M  END
$$$$
phosphide
 OpenBabel03171423152D

  1  0  0  0  0  0  0  0  0  0999 V2000
    0.0000    0.0000    0.0000 P   0  7  0  0  0  0  0  0  0  0  0  0
M  CHG  1   1  -3
M  END
$$$$
emamectin
 OpenBabel03171423152D

 63 69  0  0  1  0  0  0  0  0999 V2000
   12.5599    0.2597    0.0000 C   0  0  0  0  0  0  0  0  0  0  0  0
   11.9087    0.7663    0.0000 C   0  0  0  0  0  0  0  0  0  0  0  0
   11.1444    0.4557    0.0000 C   0  0  2  0  0  0  0  0  0  0  0  0
   11.0313   -0.3615    0.0000 C   0  0  0  0  0  0  0  0  0  0  0  0
   10.4933    0.9623    0.0000 C   0  0  1  0  0  0  0  0  0  0  0  0
    9.7290    0.6516    0.0000 O   0  0  0  0  0  0  0  0  0  0  0  0
    9.0778    1.1582    0.0000 C   0  0  2  0  0  0  0  0  0  0  0  0
    8.4267    1.6648    0.0000 C   0  0  0  0  0  0  0  0  0  0  0  0
    7.6624    1.3542    0.0000 C   0  0  2  0  0  0  0  0  0  0  0  0
    7.5492    0.5370    0.0000 C   0  0  0  0  0  0  0  0  0  0  0  0
    8.2004    0.0304    0.0000 C   0  0  1  0  0  0  0  0  0  0  0  0
    8.0873   -0.7868    0.0000 C   0  0  0  0  0  0  0  0  0  0  0  0
    7.3230   -1.0974    0.0000 C   0  0  0  0  0  0  0  0  0  0  0  0
    7.2098   -1.9146    0.0000 C   0  0  0  0  0  0  0  0  0  0  0  0
    7.8610   -2.4212    0.0000 C   0  0  0  0  0  0  0  0  0  0  0  0
    6.4455   -2.2252    0.0000 C   0  0  1  0  0  0  0  0  0  0  0  0
    6.3324   -3.0425    0.0000 O   0  0  0  0  0  0  0  0  0  0  0  0
    5.5681   -3.3531    0.0000 C   0  0  1  0  0  0  0  0  0  0  0  0
    5.4550   -4.1703    0.0000 C   0  0  0  0  0  0  0  0  0  0  0  0
    4.6907   -4.4809    0.0000 C   0  0  2  0  0  0  0  0  0  0  0  0
    4.5775   -5.2981    0.0000 O   0  0  0  0  0  0  0  0  0  0  0  0
    3.8132   -5.6087    0.0000 C   0  0  0  0  0  0  0  0  0  0  0  0
    4.0395   -3.9743    0.0000 C   0  0  1  0  0  0  0  0  0  0  0  0
    3.2752   -4.2849    0.0000 O   0  0  0  0  0  0  0  0  0  0  0  0
    2.6241   -3.7784    0.0000 C   0  0  1  0  0  0  0  0  0  0  0  0
    1.8598   -4.0890    0.0000 C   0  0  0  0  0  0  0  0  0  0  0  0
    1.2086   -3.5824    0.0000 C   0  0  1  0  0  0  0  0  0  0  0  0
    0.4444   -3.8930    0.0000 O   0  0  0  0  0  0  0  0  0  0  0  0
   -0.2068   -3.3864    0.0000 C   0  0  0  0  0  0  0  0  0  0  0  0
    1.3218   -2.7652    0.0000 C   0  0  2  0  0  0  0  0  0  0  0  0
    0.6706   -2.2586    0.0000 N   0  0  0  0  0  0  0  0  0  0  0  0
   -0.0937   -2.5692    0.0000 C   0  0  0  0  0  0  0  0  0  0  0  0
    2.0861   -2.4546    0.0000 C   0  0  1  0  0  0  0  0  0  0  0  0
    2.1992   -1.6374    0.0000 C   0  0  0  0  0  0  0  0  0  0  0  0
    2.7372   -2.9611    0.0000 O   0  0  0  0  0  0  0  0  0  0  0  0
    4.1527   -3.1571    0.0000 C   0  0  2  0  0  0  0  0  0  0  0  0
    3.5015   -2.6505    0.0000 C   0  0  0  0  0  0  0  0  0  0  0  0
    4.9170   -2.8465    0.0000 O   0  0  0  0  0  0  0  0  0  0  0  0
    5.7944   -1.7187    0.0000 C   0  0  1  0  0  0  0  0  0  0  0  0
    5.0301   -2.0293    0.0000 C   0  0  0  0  0  0  0  0  0  0  0  0
    5.9075   -0.9015    0.0000 C   0  0  0  0  0  0  0  0  0  0  0  0
    5.2564   -0.3949    0.0000 C   0  0  0  0  0  0  0  0  0  0  0  0
    5.3695    0.4223    0.0000 C   0  0  0  0  0  0  0  0  0  0  0  0
    4.7184    0.9289    0.0000 C   0  0  0  0  0  0  0  0  0  0  0  0
    3.8955    0.8697    0.0000 C   0  0  0  0  0  0  0  0  0  0  0  0
    3.5849    1.6340    0.0000 O   0  0  0  0  0  0  0  0  0  0  0  0
    4.2158    2.1656    0.0000 C   0  0  2  0  0  0  0  0  0  0  0  0
    4.2429    2.9901    0.0000 C   0  0  2  0  0  0  0  0  0  0  0  0
    3.5423    3.4259    0.0000 O   0  0  0  0  0  0  0  0  0  0  0  0
    4.9705    3.3789    0.0000 C   0  0  0  0  0  0  0  0  0  0  0  0
    4.9976    4.2035    0.0000 C   0  0  0  0  0  0  0  0  0  0  0  0
    5.6710    2.9432    0.0000 C   0  0  0  0  0  0  0  0  0  0  0  0
    5.5958    2.0567    0.0000 C   0  0  1  0  0  0  0  0  0  0  0  0
    6.2469    1.5502    0.0000 C   0  0  0  0  0  0  0  0  0  0  0  0
    6.1338    0.7330    0.0000 O   0  0  0  0  0  0  0  0  0  0  0  0
    7.0112    1.8608    0.0000 O   0  0  0  0  0  0  0  0  0  0  0  0
    4.8315    1.7461    0.0000 C   0  0  2  0  0  0  0  0  0  0  0  0
    4.9188    2.5665    0.0000 O   0  0  0  0  0  0  0  0  0  0  0  0
    8.9647    0.3410    0.0000 O   0  0  0  0  0  0  0  0  0  0  0  0
    9.1910    1.9754    0.0000 C   0  0  0  0  0  0  0  0  0  0  0  0
    9.9553    2.2861    0.0000 C   0  0  0  0  0  0  0  0  0  0  0  0
   10.6064    1.7795    0.0000 C   0  0  2  0  0  0  0  0  0  0  0  0
   11.3707    2.0901    0.0000 C   0  0  0  0  0  0  0  0  0  0  0  0
  1  2  1  0  0  0  0
  3  2  1  6  0  0  0
  3  4  1  0  0  0  0
  5  3  1  0  0  0  0
  5  6  1  1  0  0  0
  5 62  1  0  0  0  0
  7  6  1  1  0  0  0
  7  8  1  0  0  0  0
  7 59  1  0  0  0  0
  7 60  1  0  0  0  0
  9  8  1  6  0  0  0
  9 10  1  0  0  0  0
  9 56  1  0  0  0  0
 11 10  1  6  0  0  0
 11 12  1  0  0  0  0
 11 59  1  0  0  0  0
 12 13  1  0  0  0  0
 13 14  2  0  0  0  0
 14 15  1  0  0  0  0
 14 16  1  0  0  0  0
 16 17  1  1  0  0  0
 16 39  1  0  0  0  0
 18 17  1  1  0  0  0
 18 19  1  0  0  0  0
 18 38  1  0  0  0  0
 19 20  1  0  0  0  0
 20 21  1  6  0  0  0
 20 23  1  0  0  0  0
 21 22  1  0  0  0  0
 23 24  1  1  0  0  0
 23 36  1  0  0  0  0
 25 24  1  1  0  0  0
 25 26  1  0  0  0  0
 25 35  1  0  0  0  0
 26 27  1  0  0  0  0
 27 28  1  1  0  0  0
 27 30  1  0  0  0  0
 28 29  1  0  0  0  0
 30 31  1  6  0  0  0
 30 33  1  0  0  0  0
 31 32  1  0  0  0  0
 33 34  1  1  0  0  0
 33 35  1  0  0  0  0
 36 37  1  6  0  0  0
 36 38  1  0  0  0  0
 39 40  1  1  0  0  0
 39 41  1  0  0  0  0
 41 42  2  0  0  0  0
 42 43  1  0  0  0  0
 43 44  2  0  0  0  0
 44 45  1  0  0  0  0
 44 57  1  0  0  0  0
 45 46  1  0  0  0  0
 47 46  1  6  0  0  0
 47 48  1  0  0  0  0
 47 57  1  0  0  0  0
 48 49  1  6  0  0  0
 48 50  1  0  0  0  0
 50 51  1  0  0  0  0
 50 52  2  0  0  0  0
 53 52  1  1  0  0  0
 53 54  1  0  0  0  0
 53 57  1  0  0  0  0
 54 55  2  0  0  0  0
 54 56  1  0  0  0  0
 57 58  1  1  0  0  0
 60 61  2  0  0  0  0
 61 62  1  0  0  0  0
 62 63  1  6  0  0  0
M  END
>  <type>
common

$$$$
imidacloprid
 OpenBabel03171423152D

 17 18  0  0  0  0  0  0  0  0999 V2000
    2.7512    0.7634    0.0000 O   0  5  0  0  0  0  0  0  0  0  0  0
    2.7512   -0.0616    0.0000 N   0  3  0  0  0  0  0  0  0  0  0  0
    3.4656   -0.4741    0.0000 O   0  0  0  0  0  0  0  0  0  0  0  0
    2.0367   -0.4741    0.0000 N   0  0  0  0  0  0  0  0  0  0  0  0
    2.0367   -1.2991    0.0000 C   0  0  0  0  0  0  0  0  0  0  0  0
    2.7041   -1.7840    0.0000 N   0  0  0  0  0  0  0  0  0  0  0  0
    2.4492   -2.5687    0.0000 C   0  0  0  0  0  0  0  0  0  0  0  0
    1.6242   -2.5687    0.0000 C   0  0  0  0  0  0  0  0  0  0  0  0
    1.3693   -1.7840    0.0000 N   0  0  0  0  0  0  0  0  0  0  0  0
    0.5846   -1.5291    0.0000 C   0  0  0  0  0  0  0  0  0  0  0  0
    0.4131   -0.7221    0.0000 C   0  0  0  0  0  0  0  0  0  0  0  0
   -0.3715   -0.4672    0.0000 C   0  0  0  0  0  0  0  0  0  0  0  0
   -0.5430    0.3398    0.0000 C   0  0  0  0  0  0  0  0  0  0  0  0
    0.0701    0.8918    0.0000 C   0  0  0  0  0  0  0  0  0  0  0  0
   -0.1015    1.6988    0.0000 Cl  0  0  0  0  0  0  0  0  0  0  0  0
    0.8547    0.6369    0.0000 N   0  0  0  0  0  0  0  0  0  0  0  0
    1.0262   -0.1701    0.0000 C   0  0  0  0  0  0  0  0  0  0  0  0
  1  2  1  0  0  0  0
  2  3  2  0  0  0  0
  2  4  1  0  0  0  0
  4  5  1  0  0  0  0
  5  6  2  0  0  0  0
  5  9  1  0  0  0  0
  6  7  1  0  0  0  0
  7  8  1  0  0  0  0
  8  9  1  0  0  0  0
  9 10  1  0  0  0  0
 10 11  1  0  0  0  0
 11 12  2  0  0  0  0
 11 17  1  0  0  0  0
 12 13  1  0  0  0  0
 13 14  2  0  0  0  0
 14 15  1  0  0  0  0
 14 16  1  0  0  0  0
 16 17  2  0  0  0  0
M  CHG  2   1  -1   2   1
M  END
$$$$
prodiamine
 OpenBabel03171423152D

 24 24  0  0  0  0  0  0  0  0999 V2000
    0.7145   -2.0625    0.0000 C   0  0  0  0  0  0  0  0  0  0  0  0
    1.4289   -2.4750    0.0000 C   0  0  0  0  0  0  0  0  0  0  0  0
    1.4289   -3.3000    0.0000 C   0  0  0  0  0  0  0  0  0  0  0  0
    2.1434   -3.7125    0.0000 N   0  0  0  0  0  0  0  0  0  0  0  0
    2.8579   -3.3000    0.0000 C   0  0  0  0  0  0  0  0  0  0  0  0
    2.8579   -2.4750    0.0000 C   0  0  0  0  0  0  0  0  0  0  0  0
    3.5724   -2.0625    0.0000 C   0  0  0  0  0  0  0  0  0  0  0  0
    2.1434   -4.5375    0.0000 C   0  0  0  0  0  0  0  0  0  0  0  0
    2.8579   -4.9500    0.0000 C   0  0  0  0  0  0  0  0  0  0  0  0
    2.8579   -5.7750    0.0000 C   0  0  0  0  0  0  0  0  0  0  0  0
    2.1434   -6.1875    0.0000 C   0  0  0  0  0  0  0  0  0  0  0  0
    1.4289   -5.7750    0.0000 C   0  0  0  0  0  0  0  0  0  0  0  0
    0.7145   -6.1875    0.0000 N   0  0  0  0  0  0  0  0  0  0  0  0
    1.4289   -4.9500    0.0000 C   0  0  0  0  0  0  0  0  0  0  0  0
    0.7145   -4.5375    0.0000 N   0  0  0  0  0  0  0  0  0  0  0  0
    0.7145   -3.7125    0.0000 O   0  0  0  0  0  0  0  0  0  0  0  0
    0.0000   -4.9500    0.0000 O   0  0  0  0  0  0  0  0  0  0  0  0
    2.1434   -7.0125    0.0000 C   0  0  0  0  0  0  0  0  0  0  0  0
    2.1434   -7.8375    0.0000 F   0  0  0  0  0  0  0  0  0  0  0  0
    1.3184   -7.0125    0.0000 F   0  0  0  0  0  0  0  0  0  0  0  0
    2.9684   -7.0125    0.0000 F   0  0  0  0  0  0  0  0  0  0  0  0
    3.5724   -4.5375    0.0000 N   0  0  0  0  0  0  0  0  0  0  0  0
    4.2868   -4.9500    0.0000 O   0  0  0  0  0  0  0  0  0  0  0  0
    3.5724   -3.7125    0.0000 O   0  0  0  0  0  0  0  0  0  0  0  0
  1  2  1  0  0  0  0
  2  3  1  0  0  0  0
  3  4  1  0  0  0  0
  4  5  1  0  0  0  0
  4  8  1  0  0  0  0
  5  6  1  0  0  0  0
  6  7  1  0  0  0  0
  8  9  2  0  0  0  0
  8 14  1  0  0  0  0
  9 10  1  0  0  0  0
  9 22  1  0  0  0  0
 10 11  2  0  0  0  0
 11 12  1  0  0  0  0
 11 18  1  0  0  0  0
 12 13  1  0  0  0  0
 12 14  2  0  0  0  0
 14 15  1  0  0  0  0
 15 16  2  0  0  0  0
 15 17  2  0  0  0  0
 18 19  1  0  0  0  0
 18 20  1  0  0  0  0
 18 21  1  0  0  0  0
 22 23  2  0  0  0  0
 22 24  2  0  0  0  0
M  END
>  <type>
common

$$$$
sethoxydim
 OpenBabel03171423152D

 22 22  0  0  0  0  0  0  0  0999 V2000
   -1.4289   -0.8250    0.0000 C   0  0  0  0  0  0  0  0  0  0  0  0
   -1.4289   -0.0000    0.0000 C   0  0  0  0  0  0  0  0  0  0  0  0
   -2.1434    0.4125    0.0000 C   0  0  0  0  0  0  0  0  0  0  0  0
   -2.1434    1.2375    0.0000 C   0  0  0  0  0  0  0  0  0  0  0  0
   -2.8579    1.6500    0.0000 N   0  0  0  0  0  0  0  0  0  0  0  0
   -3.5724    1.2375    0.0000 O   0  0  0  0  0  0  0  0  0  0  0  0
   -4.2868    1.6500    0.0000 C   0  0  0  0  0  0  0  0  0  0  0  0
   -5.0013    1.2375    0.0000 C   0  0  0  0  0  0  0  0  0  0  0  0
   -1.4289    1.6500    0.0000 C   0  0  0  0  0  0  0  0  0  0  0  0
   -1.4289    2.4750    0.0000 C   0  0  0  0  0  0  0  0  0  0  0  0
   -2.1434    2.8875    0.0000 O   0  0  0  0  0  0  0  0  0  0  0  0
   -0.7145    2.8875    0.0000 C   0  0  0  0  0  0  0  0  0  0  0  0
    0.0000    2.4750    0.0000 C   0  0  3  0  0  0  0  0  0  0  0  0
    0.7145    2.8875    0.0000 C   0  0  0  0  0  0  0  0  0  0  0  0
    1.4289    2.4750    0.0000 C   0  0  3  0  0  0  0  0  0  0  0  0
    1.4289    1.6500    0.0000 C   0  0  0  0  0  0  0  0  0  0  0  0
    2.1434    2.8875    0.0000 S   0  0  0  0  0  0  0  0  0  0  0  0
    2.8579    2.4750    0.0000 C   0  0  0  0  0  0  0  0  0  0  0  0
    3.5724    2.8875    0.0000 C   0  0  0  0  0  0  0  0  0  0  0  0
    0.0000    1.6500    0.0000 C   0  0  0  0  0  0  0  0  0  0  0  0
   -0.7145    1.2375    0.0000 C   0  0  0  0  0  0  0  0  0  0  0  0
   -0.7145    0.4125    0.0000 O   0  0  0  0  0  0  0  0  0  0  0  0
  1  2  1  0  0  0  0
  2  3  1  0  0  0  0
  3  4  1  0  0  0  0
  4  5  2  0  0  0  0
  4  9  1  0  0  0  0
  5  6  1  0  0  0  0
  6  7  1  0  0  0  0
  7  8  1  0  0  0  0
  9 10  2  0  0  0  0
  9 21  1  0  0  0  0
 10 11  1  0  0  0  0
 10 12  1  0  0  0  0
 12 13  1  0  0  0  0
 13 14  1  0  0  0  0
 13 20  1  0  0  0  0
 14 15  1  0  0  0  0
 15 16  1  0  0  0  0
 15 17  1  0  0  0  0
 17 18  1  0  0  0  0
 18 19  1  0  0  0  0
 20 21  1  0  0  0  0
 21 22  2  0  0  0  0
M  END
$$$$
Dettol
 OpenBabel03171423152D

 10 10  0  0  0  0  0  0  0  0999 V2000
    0.7145    2.0625    0.0000 C   0  0  0  0  0  0  0  0  0  0  0  0
    0.7145    1.2375    0.0000 C   0  0  0  0  0  0  0  0  0  0  0  0
    1.4289    0.8250    0.0000 C   0  0  0  0  0  0  0  0  0  0  0  0
    1.4289   -0.0000    0.0000 C   0  0  0  0  0  0  0  0  0  0  0  0
    2.1434   -0.4125    0.0000 O   0  0  0  0  0  0  0  0  0  0  0  0
    0.7145   -0.4125    0.0000 C   0  0  0  0  0  0  0  0  0  0  0  0
    0.0000    0.0000    0.0000 C   0  0  0  0  0  0  0  0  0  0  0  0
   -0.7145   -0.4125    0.0000 C   0  0  0  0  0  0  0  0  0  0  0  0
    0.0000    0.8250    0.0000 C   0  0  0  0  0  0  0  0  0  0  0  0
   -0.7145    1.2375    0.0000 Cl  0  0  0  0  0  0  0  0  0  0  0  0
  1  2  1  0  0  0  0
  2  3  2  0  0  0  0
  2  9  1  0  0  0  0
  3  4  1  0  0  0  0
  4  5  1  0  0  0  0
  4  6  2  0  0  0  0
  6  7  1  0  0  0  0
  7  8  1  0  0  0  0
  7  9  2  0  0  0  0
  9 10  1  0  0  0  0
M  END
$$$$
copper gluconate
 OpenBabel03171423152D

 14 12  0  0  1  0  0  0  0  0999 V2000
    0.0000    0.0000    0.0000 Cu  0  3  0  0  0 15  0  0  0  0  0  0
    2.1214   -0.1269    0.0000 O   0  0  0  0  0  0  0  0  0  0  0  0
    2.8359    0.2856    0.0000 C   0  0  0  0  0  0  0  0  0  0  0  0
    3.5504   -0.1269    0.0000 C   0  0  1  0  0  0  0  0  0  0  0  0
    3.5504   -0.9519    0.0000 O   0  0  0  0  0  0  0  0  0  0  0  0
    4.2648    0.2856    0.0000 C   0  0  1  0  0  0  0  0  0  0  0  0
    4.2648    1.1106    0.0000 O   0  0  0  0  0  0  0  0  0  0  0  0
    4.9793   -0.1269    0.0000 C   0  0  2  0  0  0  0  0  0  0  0  0
    4.9793   -0.9519    0.0000 O   0  0  0  0  0  0  0  0  0  0  0  0
    5.6938    0.2856    0.0000 C   0  0  1  0  0  0  0  0  0  0  0  0
    5.6938    1.1106    0.0000 O   0  0  0  0  0  0  0  0  0  0  0  0
    6.4083   -0.1269    0.0000 C   0  0  0  0  0  0  0  0  0  0  0  0
    7.1227    0.2856    0.0000 O   0  5  0  0  0  0  0  0  0  0  0  0
    6.4083   -0.9519    0.0000 O   0  0  0  0  0  0  0  0  0  0  0  0
  2  3  1  0  0  0  0
  4  3  1  6  0  0  0
  4  5  1  0  0  0  0
  4  6  1  0  0  0  0
  6  7  1  1  0  0  0
  6  8  1  0  0  0  0
  8  9  1  1  0  0  0
  8 10  1  0  0  0  0
 10 11  1  1  0  0  0
 10 12  1  0  0  0  0
 12 13  1  0  0  0  0
 12 14  2  0  0  0  0
M  CHG  2   1   1  13  -1
M  END
>  <type>
common

$$$$
iron phosphate
 OpenBabel03171423152D

  6  4  0  0  0  0  0  0  0  0999 V2000
    0.0000    0.0000    0.0000 Fe  0  0  0  0  0 15  0  0  0  0  0  0
    2.8286   -0.8250    0.0000 O   0  5  0  0  0  0  0  0  0  0  0  0
    2.8286    0.0000    0.0000 P   0  0  0  0  0  0  0  0  0  0  0  0
    2.8286    0.8250    0.0000 O   0  5  0  0  0  0  0  0  0  0  0  0
    3.6536   -0.0000    0.0000 O   0  5  0  0  0  0  0  0  0  0  0  0
    2.0036    0.0000    0.0000 O   0  0  0  0  0  0  0  0  0  0  0  0
  2  3  1  0  0  0  0
  3  4  1  0  0  0  0
  3  5  1  0  0  0  0
  3  6  2  0  0  0  0
M  CHG  3   2  -1   4  -1   5  -1
M  END
$$$$
metribuzin
 OpenBabel03171423152D

 14 14  0  0  0  0  0  0  0  0999 V2000
    0.0000    2.4750    0.0000 C   0  0  0  0  0  0  0  0  0  0  0  0
    0.7145    2.0625    0.0000 S   0  0  0  0  0  0  0  0  0  0  0  0
    0.7145    1.2375    0.0000 C   0  0  0  0  0  0  0  0  0  0  0  0
    1.4289    0.8250    0.0000 N   0  0  0  0  0  0  0  0  0  0  0  0
    1.4289   -0.0000    0.0000 N   0  0  0  0  0  0  0  0  0  0  0  0
    0.7145   -0.4125    0.0000 C   0  0  0  0  0  0  0  0  0  0  0  0
    0.0000    0.0000    0.0000 C   0  0  0  0  0  0  0  0  0  0  0  0
   -0.7145   -0.4125    0.0000 O   0  0  0  0  0  0  0  0  0  0  0  0
    0.0000    0.8250    0.0000 N   0  0  0  0  0  0  0  0  0  0  0  0
   -0.7145    1.2375    0.0000 N   0  0  0  0  0  0  0  0  0  0  0  0
    0.7145   -1.2375    0.0000 C   0  0  0  0  0  0  0  0  0  0  0  0
    0.7145   -2.0625    0.0000 C   0  0  0  0  0  0  0  0  0  0  0  0
   -0.1105   -1.2375    0.0000 C   0  0  0  0  0  0  0  0  0  0  0  0
    1.5395   -1.2375    0.0000 C   0  0  0  0  0  0  0  0  0  0  0  0
  1  2  1  0  0  0  0
  2  3  1  0  0  0  0
  3  4  2  0  0  0  0
  3  9  1  0  0  0  0
  4  5  1  0  0  0  0
  5  6  2  0  0  0  0
  6  7  1  0  0  0  0
  6 11  1  0  0  0  0
  7  8  2  0  0  0  0
  7  9  1  0  0  0  0
  9 10  1  0  0  0  0
 11 12  1  0  0  0  0
 11 13  1  0  0  0  0
 11 14  1  0  0  0  0
M  END
$$$$
isoxaben
 OpenBabel03171423152D

 24 25  0  0  0  0  0  0  0  0999 V2000
    2.1434   -0.4125    0.0000 C   0  0  0  0  0  0  0  0  0  0  0  0
    1.4289   -0.8250    0.0000 C   0  0  0  0  0  0  0  0  0  0  0  0
    1.4289   -1.6500    0.0000 C   0  0  0  0  0  0  0  0  0  0  0  0
    0.6039   -1.6500    0.0000 C   0  0  0  0  0  0  0  0  0  0  0  0
    2.2539   -1.6500    0.0000 C   0  0  0  0  0  0  0  0  0  0  0  0
    2.6664   -2.3645    0.0000 C   0  0  0  0  0  0  0  0  0  0  0  0
    1.4289   -2.4750    0.0000 C   0  0  0  0  0  0  0  0  0  0  0  0
    2.0964   -2.9599    0.0000 N   0  0  0  0  0  0  0  0  0  0  0  0
    1.8414   -3.7445    0.0000 O   0  0  0  0  0  0  0  0  0  0  0  0
    1.0164   -3.7445    0.0000 C   0  0  0  0  0  0  0  0  0  0  0  0
    0.5315   -4.4120    0.0000 N   0  0  0  0  0  0  0  0  0  0  0  0
    0.8671   -5.1657    0.0000 C   0  0  0  0  0  0  0  0  0  0  0  0
    1.6876   -5.2519    0.0000 O   0  0  0  0  0  0  0  0  0  0  0  0
    0.3822   -5.8331    0.0000 C   0  0  0  0  0  0  0  0  0  0  0  0
    0.7177   -6.5868    0.0000 C   0  0  0  0  0  0  0  0  0  0  0  0
    1.5382   -6.6730    0.0000 O   0  0  0  0  0  0  0  0  0  0  0  0
    2.0231   -6.0056    0.0000 C   0  0  0  0  0  0  0  0  0  0  0  0
    0.2328   -7.2542    0.0000 C   0  0  0  0  0  0  0  0  0  0  0  0
   -0.5877   -7.1680    0.0000 C   0  0  0  0  0  0  0  0  0  0  0  0
   -0.9232   -6.4143    0.0000 C   0  0  0  0  0  0  0  0  0  0  0  0
   -0.4383   -5.7469    0.0000 C   0  0  0  0  0  0  0  0  0  0  0  0
   -0.7739   -4.9932    0.0000 O   0  0  0  0  0  0  0  0  0  0  0  0
   -0.2890   -4.3257    0.0000 C   0  0  0  0  0  0  0  0  0  0  0  0
    0.7615   -2.9599    0.0000 C   0  0  0  0  0  0  0  0  0  0  0  0
  1  2  1  0  0  0  0
  2  3  1  0  0  0  0
  3  4  1  0  0  0  0
  3  5  1  0  0  0  0
  3  7  1  0  0  0  0
  5  6  1  0  0  0  0
  7  8  2  0  0  0  0
  7 24  1  0  0  0  0
  8  9  1  0  0  0  0
  9 10  1  0  0  0  0
 10 11  1  0  0  0  0
 10 24  2  0  0  0  0
 11 12  1  0  0  0  0
 12 13  2  0  0  0  0
 12 14  1  0  0  0  0
 14 15  2  0  0  0  0
 14 21  1  0  0  0  0
 15 16  1  0  0  0  0
 15 18  1  0  0  0  0
 16 17  1  0  0  0  0
 18 19  2  0  0  0  0
 19 20  1  0  0  0  0
 20 21  2  0  0  0  0
 21 22  1  0  0  0  0
 22 23  1  0  0  0  0
M  END
$$$$
1,2-dichloroethane
 OpenBabel03171423152D

  4  3  0  0  0  0  0  0  0  0999 V2000
    2.0625   -0.7145    0.0000 Cl  0  0  0  0  0  0  0  0  0  0  0  0
    1.2375   -0.7145    0.0000 C   0  0  0  0  0  0  0  0  0  0  0  0
    0.8250    0.0000    0.0000 C   0  0  0  0  0  0  0  0  0  0  0  0
    0.0000    0.0000    0.0000 Cl  0  0  0  0  0  0  0  0  0  0  0  0
  1  2  1  0  0  0  0
  2  3  1  0  0  0  0
  3  4  1  0  0  0  0
M  END
$$$$
triisopropanolamine
 OpenBabel03171423152D

 13 12  0  0  0  0  0  0  0  0999 V2000
   -0.6039    1.6500    0.0000 C   0  0  0  0  0  0  0  0  0  0  0  0
    0.1105    1.2375    0.0000 C   0  0  0  0  0  0  0  0  0  0  0  0
   -0.3020    0.5230    0.0000 C   0  0  0  0  0  0  0  0  0  0  0  0
    0.5230    1.9520    0.0000 O   0  0  0  0  0  0  0  0  0  0  0  0
    0.8250    0.8250    0.0000 N   0  0  0  0  0  0  0  0  0  0  0  0
    1.5395    1.2375    0.0000 C   0  0  0  0  0  0  0  0  0  0  0  0
    2.2539    1.6500    0.0000 C   0  0  0  0  0  0  0  0  0  0  0  0
    1.9520    0.5230    0.0000 C   0  0  0  0  0  0  0  0  0  0  0  0
    1.1270    1.9520    0.0000 O   0  0  0  0  0  0  0  0  0  0  0  0
    0.8250    0.0000    0.0000 C   0  0  0  0  0  0  0  0  0  0  0  0
    0.8250   -0.8250    0.0000 C   0  0  0  0  0  0  0  0  0  0  0  0
    1.6500   -0.0000    0.0000 C   0  0  0  0  0  0  0  0  0  0  0  0
    0.0000    0.0000    0.0000 O   0  0  0  0  0  0  0  0  0  0  0  0
  1  2  1  0  0  0  0
  2  3  1  0  0  0  0
  2  4  1  0  0  0  0
  2  5  1  0  0  0  0
  5  6  1  0  0  0  0
  5 10  1  0  0  0  0
  6  7  1  0  0  0  0
  6  8  1  0  0  0  0
  6  9  1  0  0  0  0
 10 11  1  0  0  0  0
 10 12  1  0  0  0  0
 10 13  1  0  0  0  0
M  END
$$$$
Tetradecan-1-ol
 OpenBabel03171423152D

 15 14  0  0  0  0  0  0  0  0999 V2000
    6.7105    4.6993    0.0000 C   0  0  0  0  0  0  0  0  0  0  0  0
    7.4250    4.2868    0.0000 C   0  0  0  0  0  0  0  0  0  0  0  0
    8.1395    4.6993    0.0000 C   0  0  0  0  0  0  0  0  0  0  0  0
    8.8539    4.2868    0.0000 C   0  0  0  0  0  0  0  0  0  0  0  0
    9.5684    4.6993    0.0000 C   0  0  0  0  0  0  0  0  0  0  0  0
   10.2829    4.2868    0.0000 C   0  0  0  0  0  0  0  0  0  0  0  0
   10.9974    4.6993    0.0000 C   0  0  0  0  0  0  0  0  0  0  0  0
   11.7118    4.2868    0.0000 C   0  0  0  0  0  0  0  0  0  0  0  0
   12.4263    4.6993    0.0000 C   0  0  0  0  0  0  0  0  0  0  0  0
   13.1408    4.2868    0.0000 C   0  0  0  0  0  0  0  0  0  0  0  0
   13.8552    4.6993    0.0000 C   0  0  0  0  0  0  0  0  0  0  0  0
   14.5697    4.2868    0.0000 C   0  0  0  0  0  0  0  0  0  0  0  0
   15.2842    4.6993    0.0000 C   0  0  0  0  0  0  0  0  0  0  0  0
   15.9987    4.2868    0.0000 C   0  0  0  0  0  0  0  0  0  0  0  0
   16.7131    4.6993    0.0000 O   0  0  0  0  0  0  0  0  0  0  0  0
  1  2  1  0  0  0  0
  2  3  1  0  0  0  0
  3  4  1  0  0  0  0
  4  5  1  0  0  0  0
  5  6  1  0  0  0  0
  6  7  1  0  0  0  0
  7  8  1  0  0  0  0
  8  9  1  0  0  0  0
  9 10  1  0  0  0  0
 10 11  1  0  0  0  0
 11 12  1  0  0  0  0
 12 13  1  0  0  0  0
 13 14  1  0  0  0  0
 14 15  1  0  0  0  0
M  END
$$$$
Benzyl benzoate
 OpenBabel03171423152D

 16 17  0  0  0  0  0  0  0  0999 V2000
    2.8579    0.0000    0.0000 O   0  0  0  0  0  0  0  0  0  0  0  0
    3.5724   -0.4125    0.0000 C   0  0  0  0  0  0  0  0  0  0  0  0
    3.5724   -1.2375    0.0000 O   0  0  0  0  0  0  0  0  0  0  0  0
    2.8579   -1.6500    0.0000 C   0  0  0  0  0  0  0  0  0  0  0  0
    2.8579   -2.4750    0.0000 C   0  0  0  0  0  0  0  0  0  0  0  0
    3.5724   -2.8875    0.0000 C   0  0  0  0  0  0  0  0  0  0  0  0
    3.5724   -3.7125    0.0000 C   0  0  0  0  0  0  0  0  0  0  0  0
    2.8579   -4.1250    0.0000 C   0  0  0  0  0  0  0  0  0  0  0  0
    2.1434   -3.7125    0.0000 C   0  0  0  0  0  0  0  0  0  0  0  0
    2.1434   -2.8875    0.0000 C   0  0  0  0  0  0  0  0  0  0  0  0
    4.2868   -0.0000    0.0000 C   0  0  0  0  0  0  0  0  0  0  0  0
    4.2868    0.8250    0.0000 C   0  0  0  0  0  0  0  0  0  0  0  0
    5.0013    1.2375    0.0000 C   0  0  0  0  0  0  0  0  0  0  0  0
    5.7158    0.8250    0.0000 C   0  0  0  0  0  0  0  0  0  0  0  0
    5.7158   -0.0000    0.0000 C   0  0  0  0  0  0  0  0  0  0  0  0
    5.0013   -0.4125    0.0000 C   0  0  0  0  0  0  0  0  0  0  0  0
  1  2  2  0  0  0  0
  2  3  1  0  0  0  0
  2 11  1  0  0  0  0
  3  4  1  0  0  0  0
  4  5  1  0  0  0  0
  5  6  2  0  0  0  0
  5 10  1  0  0  0  0
  6  7  1  0  0  0  0
  7  8  2  0  0  0  0
  8  9  1  0  0  0  0
  9 10  2  0  0  0  0
 11 12  2  0  0  0  0
 11 16  1  0  0  0  0
 12 13  1  0  0  0  0
 13 14  2  0  0  0  0
 14 15  1  0  0  0  0
 15 16  2  0  0  0  0
M  END
$$$$
4,5-dichlor-2-octyl-2H-isothiazole-3-one
 OpenBabel03171423152D

 16 16  0  0  0  0  0  0  0  0999 V2000
    3.5108   -4.3205    0.0000 C   0  0  0  0  0  0  0  0  0  0  0  0
    4.2253   -3.9080    0.0000 C   0  0  0  0  0  0  0  0  0  0  0  0
    4.9398   -4.3205    0.0000 C   0  0  0  0  0  0  0  0  0  0  0  0
    5.6542   -3.9080    0.0000 C   0  0  0  0  0  0  0  0  0  0  0  0
    6.3687   -4.3205    0.0000 C   0  0  0  0  0  0  0  0  0  0  0  0
    7.0832   -3.9080    0.0000 C   0  0  0  0  0  0  0  0  0  0  0  0
    7.7976   -4.3205    0.0000 C   0  0  0  0  0  0  0  0  0  0  0  0
    8.5121   -3.9080    0.0000 C   0  0  0  0  0  0  0  0  0  0  0  0
    9.2266   -4.3205    0.0000 N   0  0  0  0  0  0  0  0  0  0  0  0
    9.9803   -3.9849    0.0000 S   0  0  0  0  0  0  0  0  0  0  0  0
   10.5323   -4.5980    0.0000 C   0  0  0  0  0  0  0  0  0  0  0  0
   11.3528   -4.5118    0.0000 Cl  0  0  0  0  0  0  0  0  0  0  0  0
   10.1198   -5.3125    0.0000 C   0  0  0  0  0  0  0  0  0  0  0  0
   10.4554   -6.0662    0.0000 Cl  0  0  0  0  0  0  0  0  0  0  0  0
    9.3128   -5.1410    0.0000 C   0  0  0  0  0  0  0  0  0  0  0  0
    8.6997   -5.6930    0.0000 O   0  0  0  0  0  0  0  0  0  0  0  0
  1  2  1  0  0  0  0
  2  3  1  0  0  0  0
  3  4  1  0  0  0  0
  4  5  1  0  0  0  0
  5  6  1  0  0  0  0
  6  7  1  0  0  0  0
  7  8  1  0  0  0  0
  8  9  1  0  0  0  0
  9 10  1  0  0  0  0
  9 15  1  0  0  0  0
 10 11  1  0  0  0  0
 11 12  1  0  0  0  0
 11 13  2  0  0  0  0
 13 14  1  0  0  0  0
 13 15  1  0  0  0  0
 15 16  2  0  0  0  0
M  END
$$$$
1-Bromo-3-chloro-5,5-dimethylhydantoin
 OpenBabel03171423152D

 11 11  0  0  0  0  0  0  0  0999 V2000
    1.1198    1.7274    0.0000 C   0  0  0  0  0  0  0  0  0  0  0  0
    0.5678    1.1143    0.0000 C   0  0  0  0  0  0  0  0  0  0  0  0
    0.0157    1.7274    0.0000 C   0  0  0  0  0  0  0  0  0  0  0  0
    1.2352    0.6294    0.0000 N   0  0  0  0  0  0  0  0  0  0  0  0
    2.0198    0.8843    0.0000 Br  0  0  0  0  0  0  0  0  0  0  0  0
    0.9803   -0.1553    0.0000 C   0  0  0  0  0  0  0  0  0  0  0  0
    1.4652   -0.8227    0.0000 O   0  0  0  0  0  0  0  0  0  0  0  0
    0.1553   -0.1553    0.0000 N   0  0  0  0  0  0  0  0  0  0  0  0
   -0.3297   -0.8227    0.0000 Cl  0  0  0  0  0  0  0  0  0  0  0  0
   -0.0997    0.6294    0.0000 C   0  0  0  0  0  0  0  0  0  0  0  0
   -0.8843    0.8843    0.0000 O   0  0  0  0  0  0  0  0  0  0  0  0
  1  2  1  0  0  0  0
  2  3  1  0  0  0  0
  2  4  1  0  0  0  0
  2 10  1  0  0  0  0
  4  5  1  0  0  0  0
  4  6  1  0  0  0  0
  6  7  2  0  0  0  0
  6  8  1  0  0  0  0
  8  9  1  0  0  0  0
  8 10  1  0  0  0  0
 10 11  2  0  0  0  0
M  END
$$$$
N-isopropyl-3-(3,5-dichlorophenyl)-2,4-dioxoimidazolidine-1-carboxamide
 OpenBabel03171423152D

 21 22  0  0  0  0  0  0  0  0999 V2000
    2.1434    1.2375    0.0000 C   0  0  0  0  0  0  0  0  0  0  0  0
    1.4289    0.8250    0.0000 C   0  0  0  0  0  0  0  0  0  0  0  0
    0.7145    1.2375    0.0000 C   0  0  0  0  0  0  0  0  0  0  0  0
    1.4289   -0.0000    0.0000 N   0  0  0  0  0  0  0  0  0  0  0  0
    0.7145   -0.4125    0.0000 C   0  0  0  0  0  0  0  0  0  0  0  0
    0.0000    0.0000    0.0000 O   0  0  0  0  0  0  0  0  0  0  0  0
    0.7145   -1.2375    0.0000 N   0  0  0  0  0  0  0  0  0  0  0  0
    1.3819   -1.7224    0.0000 C   0  0  0  0  0  0  0  0  0  0  0  0
    1.1270   -2.5070    0.0000 C   0  0  0  0  0  0  0  0  0  0  0  0
    1.6119   -3.1745    0.0000 O   0  0  0  0  0  0  0  0  0  0  0  0
    0.3020   -2.5070    0.0000 N   0  0  0  0  0  0  0  0  0  0  0  0
    0.0470   -1.7224    0.0000 C   0  0  0  0  0  0  0  0  0  0  0  0
   -0.7376   -1.4675    0.0000 O   0  0  0  0  0  0  0  0  0  0  0  0
   -0.1830   -3.1745    0.0000 C   0  0  0  0  0  0  0  0  0  0  0  0
    0.1526   -3.9282    0.0000 C   0  0  0  0  0  0  0  0  0  0  0  0
   -0.3323   -4.5956    0.0000 C   0  0  0  0  0  0  0  0  0  0  0  0
    0.0032   -5.3493    0.0000 Cl  0  0  0  0  0  0  0  0  0  0  0  0
   -1.1528   -4.5094    0.0000 C   0  0  0  0  0  0  0  0  0  0  0  0
   -1.4884   -3.7557    0.0000 C   0  0  0  0  0  0  0  0  0  0  0  0
   -2.3088   -3.6695    0.0000 Cl  0  0  0  0  0  0  0  0  0  0  0  0
   -1.0034   -3.0882    0.0000 C   0  0  0  0  0  0  0  0  0  0  0  0
  1  2  1  0  0  0  0
  2  3  1  0  0  0  0
  2  4  1  0  0  0  0
  4  5  1  0  0  0  0
  5  6  2  0  0  0  0
  5  7  1  0  0  0  0
  7  8  1  0  0  0  0
  7 12  1  0  0  0  0
  8  9  1  0  0  0  0
  9 10  2  0  0  0  0
  9 11  1  0  0  0  0
 11 12  1  0  0  0  0
 11 14  1  0  0  0  0
 12 13  2  0  0  0  0
 14 15  2  0  0  0  0
 14 21  1  0  0  0  0
 15 16  1  0  0  0  0
 16 17  1  0  0  0  0
 16 18  2  0  0  0  0
 18 19  1  0  0  0  0
 19 20  1  0  0  0  0
 19 21  2  0  0  0  0
M  END
$$$$
Propargite
 OpenBabel03171423152D

 24 25  0  0  0  0  0  0  0  0999 V2000
   -2.8579    2.4750    0.0000 C   0  0  0  0  0  0  0  0  0  0  0  0
   -2.1434    2.0625    0.0000 C   0  0  0  0  0  0  0  0  0  0  0  0
   -2.5559    1.3480    0.0000 C   0  0  0  0  0  0  0  0  0  0  0  0
   -1.7309    2.7770    0.0000 C   0  0  0  0  0  0  0  0  0  0  0  0
   -1.4289    1.6500    0.0000 C   0  0  0  0  0  0  0  0  0  0  0  0
   -0.7145    2.0625    0.0000 C   0  0  0  0  0  0  0  0  0  0  0  0
    0.0000    1.6500    0.0000 C   0  0  0  0  0  0  0  0  0  0  0  0
    0.0000    0.8250    0.0000 C   0  0  0  0  0  0  0  0  0  0  0  0
    0.7145    0.4125    0.0000 O   0  0  0  0  0  0  0  0  0  0  0  0
    1.4289    0.8250    0.0000 C   0  0  3  0  0  0  0  0  0  0  0  0
    1.4289    1.6500    0.0000 C   0  0  0  0  0  0  0  0  0  0  0  0
    2.1434    2.0625    0.0000 C   0  0  0  0  0  0  0  0  0  0  0  0
    2.8579    1.6500    0.0000 C   0  0  0  0  0  0  0  0  0  0  0  0
    2.8579    0.8250    0.0000 C   0  0  0  0  0  0  0  0  0  0  0  0
    2.1434    0.4125    0.0000 C   0  0  3  0  0  0  0  0  0  0  0  0
    2.1434   -0.4125    0.0000 O   0  0  0  0  0  0  0  0  0  0  0  0
    2.8579   -0.8250    0.0000 S   0  0  3  0  0  0  0  0  0  0  0  0
    2.8579   -1.6500    0.0000 O   0  0  0  0  0  0  0  0  0  0  0  0
    3.5724   -0.4125    0.0000 O   0  0  0  0  0  0  0  0  0  0  0  0
    4.2868   -0.8250    0.0000 C   0  0  0  0  0  0  0  0  0  0  0  0
    5.0013   -0.4125    0.0000 C   0  0  0  0  0  0  0  0  0  0  0  0
    5.7158    0.0000    0.0000 C   0  0  0  0  0  0  0  0  0  0  0  0
   -0.7145    0.4125    0.0000 C   0  0  0  0  0  0  0  0  0  0  0  0
   -1.4289    0.8250    0.0000 C   0  0  0  0  0  0  0  0  0  0  0  0
  1  2  1  0  0  0  0
  2  3  1  0  0  0  0
  2  4  1  0  0  0  0
  2  5  1  0  0  0  0
  5  6  2  0  0  0  0
  5 24  1  0  0  0  0
  6  7  1  0  0  0  0
  7  8  2  0  0  0  0
  8  9  1  0  0  0  0
  8 23  1  0  0  0  0
  9 10  1  0  0  0  0
 10 11  1  0  0  0  0
 10 15  1  0  0  0  0
 11 12  1  0  0  0  0
 12 13  1  0  0  0  0
 13 14  1  0  0  0  0
 14 15  1  0  0  0  0
 15 16  1  0  0  0  0
 16 17  1  0  0  0  0
 17 18  2  0  0  0  0
 17 19  1  0  0  0  0
 19 20  1  0  0  0  0
 20 21  1  0  0  0  0
 21 22  3  0  0  0  0
 23 24  2  0  0  0  0
M  END
$$$$
Azadirachtin A
 OpenBabel03171423152D

 51 58  0  0  1  0  0  0  0  0999 V2000
    4.1854   -0.9645    0.0000 C   0  0  0  0  0  0  0  0  0  0  0  0
    3.4710   -0.5520    0.0000 O   0  0  0  0  0  0  0  0  0  0  0  0
    2.7565   -0.9645    0.0000 C   0  0  0  0  0  0  0  0  0  0  0  0
    2.7565   -1.7895    0.0000 O   0  0  0  0  0  0  0  0  0  0  0  0
    2.0420   -0.5520    0.0000 C   0  0  1  0  0  0  0  0  0  0  0  0
    2.5270    0.1154    0.0000 O   0  0  0  0  0  0  0  0  0  0  0  0
    1.7065   -1.3057    0.0000 O   0  0  0  0  0  0  0  0  0  0  0  0
    1.0510   -1.0545    0.0000 C   0  0  0  0  0  0  0  0  0  0  0  0
    0.7145   -0.4125    0.0000 C   0  0  1  0  0  0  0  0  0  0  0  0
    0.0000    0.0000    0.0000 C   0  0  1  0  0  0  0  0  0  0  0  0
    0.0000    0.8250    0.0000 C   0  0  1  0  0  0  0  0  0  0  0  0
   -0.7846    1.0799    0.0000 O   0  0  0  0  0  0  0  0  0  0  0  0
   -1.2695    0.4125    0.0000 C   0  0  0  0  0  0  0  0  0  0  0  0
   -0.7145   -0.4125    0.0000 C   0  0  2  0  0  0  0  0  0  0  0  0
   -0.7145   -1.2375    0.0000 C   0  0  1  0  0  0  0  0  0  0  0  0
    0.0000   -1.6500    0.0000 C   0  0  0  0  0  0  0  0  0  0  0  0
    0.7145   -1.2375    0.0000 C   0  0  2  0  0  0  0  0  0  0  0  0
    1.4289   -1.6500    0.0000 O   0  0  0  0  0  0  0  0  0  0  0  0
    1.4289   -2.4750    0.0000 C   0  0  0  0  0  0  0  0  0  0  0  0
    0.7145   -2.8875    0.0000 O   0  0  0  0  0  0  0  0  0  0  0  0
    2.1434   -2.8875    0.0000 C   0  0  0  0  0  0  0  0  0  0  0  0
    2.8579   -2.4750    0.0000 C   0  0  0  0  0  0  0  0  0  0  0  0
    2.1434   -3.7125    0.0000 C   0  0  0  0  0  0  0  0  0  0  0  0
    2.8579   -4.1250    0.0000 C   0  0  0  0  0  0  0  0  0  0  0  0
   -1.4289   -1.6500    0.0000 O   0  0  0  0  0  0  0  0  0  0  0  0
   -1.4289   -2.4750    0.0000 C   0  0  0  0  0  0  0  0  0  0  0  0
   -0.7145   -2.8875    0.0000 C   0  0  0  0  0  0  0  0  0  0  0  0
   -2.1434   -2.8875    0.0000 O   0  0  0  0  0  0  0  0  0  0  0  0
   -1.5036   -0.6532    0.0000 C   0  0  0  0  0  0  0  0  0  0  0  0
   -1.6896   -1.4570    0.0000 O   0  0  0  0  0  0  0  0  0  0  0  0
   -2.1066   -0.0902    0.0000 O   0  0  0  0  0  0  0  0  0  0  0  0
   -1.9205    0.7135    0.0000 C   0  0  0  0  0  0  0  0  0  0  0  0
    0.7145    1.2375    0.0000 C   0  0  1  0  0  0  0  0  0  0  0  0
    0.7145    2.0625    0.0000 O   0  0  0  0  0  0  0  0  0  0  0  0
    1.4289    0.8250    0.0000 C   0  0  2  0  0  0  0  0  0  0  0  0
    2.2414    0.6817    0.0000 C   0  0  0  0  0  0  0  0  0  0  0  0
    1.4289    0.0000    0.0000 C   0  0  2  0  0  0  0  0  0  0  0  0
    1.7111    1.6002    0.0000 C   0  0  2  0  0  0  0  0  0  0  0  0
    1.7298    2.4250    0.0000 O   0  0  0  0  0  0  0  0  0  0  0  0
    2.4347    1.9965    0.0000 C   0  0  2  0  0  0  0  0  0  0  0  0
    2.6923    1.2127    0.0000 C   0  0  0  0  0  0  0  0  0  0  0  0
    2.6998    2.6423    0.0000 C   0  0  1  0  0  0  0  0  0  0  0  0
    2.1596    3.1070    0.0000 C   0  0  0  0  0  0  0  0  0  0  0  0
    2.2625    2.2884    0.0000 C   0  0  2  0  0  0  0  0  0  0  0  0
    3.2332    2.2447    0.0000 O   0  0  0  0  0  0  0  0  0  0  0  0
    3.7296    1.7932    0.0000 C   0  0  2  0  0  0  0  0  0  0  0  0
    4.5395    1.6360    0.0000 O   0  0  0  0  0  0  0  0  0  0  0  0
    4.9393    2.3577    0.0000 C   0  0  0  0  0  0  0  0  0  0  0  0
    4.3764    2.9609    0.0000 C   0  0  0  0  0  0  0  0  0  0  0  0
    3.6288    2.6120    0.0000 C   0  0  2  0  0  0  0  0  0  0  0  0
    3.4633    3.4203    0.0000 O   0  0  0  0  0  0  0  0  0  0  0  0
  1  2  1  0  0  0  0
  2  3  1  0  0  0  0
  3  4  2  0  0  0  0
  5  3  1  1  0  0  0
  5  6  1  0  0  0  0
  5  7  1  0  0  0  0
  7  8  1  0  0  0  0
  9  8  1  6  0  0  0
  9 17  1  0  0  0  0
 10  9  1  6  0  0  0
 10 11  1  0  0  0  0
 10 14  1  0  0  0  0
 11 12  1  1  0  0  0
 11 33  1  0  0  0  0
 12 13  1  0  0  0  0
 13 14  1  0  0  0  0
 14 15  1  0  0  0  0
 14 29  1  6  0  0  0
 15 16  1  0  0  0  0
 15 25  1  1  0  0  0
 16 17  1  0  0  0  0
 17 18  1  1  0  0  0
 18 19  1  0  0  0  0
 19 20  2  0  0  0  0
 19 21  1  0  0  0  0
 21 22  1  0  0  0  0
 21 23  2  0  0  0  0
 23 24  1  0  0  0  0
 25 26  1  0  0  0  0
 26 27  1  0  0  0  0
 26 28  2  0  0  0  0
 29 30  2  0  0  0  0
 29 31  1  0  0  0  0
 31 32  1  0  0  0  0
 33 34  1  1  0  0  0
 33 35  1  0  0  0  0
 35 36  1  6  0  0  0
 35 38  1  0  0  0  0
 37  5  1  6  0  0  0
 37 35  1  0  0  0  0
 37  9  1  0  0  0  0
 38 39  1  6  0  0  0
 38 40  1  0  0  0  0
 38 44  1  0  0  0  0
 39 40  1  0  0  0  0
 40 41  1  6  0  0  0
 40 42  1  0  0  0  0
 42 43  1  1  0  0  0
 42 50  1  0  0  0  0
 44 43  1  6  0  0  0
 44 45  1  0  0  0  0
 46 45  1  1  0  0  0
 46 47  1  0  0  0  0
 46 50  1  0  0  0  0
 47 48  1  0  0  0  0
 48 49  2  0  0  0  0
 49 50  1  0  0  0  0
 50 51  1  6  0  0  0
M  END
$$$$
Terramycin
 OpenBabel03171423152D

 33 36  0  0  1  0  0  0  0  0999 V2000
    5.7158   -1.6500    0.0000 C   0  0  0  0  0  0  0  0  0  0  0  0
    5.0013   -1.2375    0.0000 N   0  0  0  0  0  0  0  0  0  0  0  0
    4.2868   -1.6500    0.0000 C   0  0  0  0  0  0  0  0  0  0  0  0
    5.0013   -0.4125    0.0000 C   0  0  1  0  0  0  0  0  0  0  0  0
    4.2868   -0.0000    0.0000 C   0  0  2  0  0  0  0  0  0  0  0  0
    3.5724   -0.4125    0.0000 C   0  0  1  0  0  0  0  0  0  0  0  0
    3.5724   -1.2375    0.0000 O   0  0  0  0  0  0  0  0  0  0  0  0
    2.8579   -0.0000    0.0000 C   0  0  1  0  0  0  0  0  0  0  0  0
    2.8579    0.8250    0.0000 C   0  0  0  0  0  0  0  0  0  0  0  0
    3.5724    1.2375    0.0000 C   0  0  0  0  0  0  0  0  0  0  0  0
    3.5724    2.0625    0.0000 O   0  0  0  0  0  0  0  0  0  0  0  0
    4.2868    0.8250    0.0000 C   0  0  1  0  0  0  0  0  0  0  0  0
    4.2868    1.6500    0.0000 O   0  0  0  0  0  0  0  0  0  0  0  0
    5.0013    1.2375    0.0000 C   0  0  0  0  0  0  0  0  0  0  0  0
    5.0013    2.0625    0.0000 O   0  0  0  0  0  0  0  0  0  0  0  0
    5.7158    0.8250    0.0000 C   0  0  0  0  0  0  0  0  0  0  0  0
    5.7158    0.0000    0.0000 C   0  0  0  0  0  0  0  0  0  0  0  0
    6.4302   -0.4125    0.0000 O   0  0  0  0  0  0  0  0  0  0  0  0
    6.4302    1.2375    0.0000 C   0  0  0  0  0  0  0  0  0  0  0  0
    7.1447    0.8250    0.0000 N   0  0  0  0  0  0  0  0  0  0  0  0
    6.4302    2.0625    0.0000 O   0  0  0  0  0  0  0  0  0  0  0  0
    2.1434    1.2375    0.0000 C   0  0  0  0  0  0  0  0  0  0  0  0
    2.1434    2.0625    0.0000 O   0  0  0  0  0  0  0  0  0  0  0  0
    1.4289    0.8250    0.0000 C   0  0  0  0  0  0  0  0  0  0  0  0
    1.4289    0.0000    0.0000 C   0  0  0  0  0  0  0  0  0  0  0  0
    0.7145   -0.4125    0.0000 C   0  0  0  0  0  0  0  0  0  0  0  0
    0.0000   -0.0000    0.0000 C   0  0  0  0  0  0  0  0  0  0  0  0
    0.0000    0.8250    0.0000 C   0  0  0  0  0  0  0  0  0  0  0  0
    0.7145    1.2375    0.0000 C   0  0  0  0  0  0  0  0  0  0  0  0
    0.7145    2.0625    0.0000 O   0  0  0  0  0  0  0  0  0  0  0  0
    2.1434   -0.4125    0.0000 C   0  0  2  0  0  0  0  0  0  0  0  0
    1.7561   -1.1409    0.0000 C   0  0  0  0  0  0  0  0  0  0  0  0
    2.5307   -1.1409    0.0000 O   0  0  0  0  0  0  0  0  0  0  0  0
  1  2  1  0  0  0  0
  2  3  1  0  0  0  0
  4  2  1  1  0  0  0
  4 17  1  0  0  0  0
  5  4  1  6  0  0  0
  5  6  1  0  0  0  0
  5 12  1  0  0  0  0
  6  7  1  1  0  0  0
  6  8  1  0  0  0  0
  8  9  1  6  0  0  0
  8 31  1  0  0  0  0
  9 10  1  0  0  0  0
  9 22  2  0  0  0  0
 10 11  2  0  0  0  0
 10 12  1  0  0  0  0
 12 13  1  1  0  0  0
 12 14  1  0  0  0  0
 14 15  2  0  0  0  0
 14 16  1  0  0  0  0
 16 17  1  0  0  0  0
 16 19  2  0  0  0  0
 17 18  2  0  0  0  0
 19 20  1  0  0  0  0
 19 21  1  0  0  0  0
 22 23  1  0  0  0  0
 22 24  1  0  0  0  0
 24 25  2  0  0  0  0
 24 29  1  0  0  0  0
 25 26  1  0  0  0  0
 25 31  1  0  0  0  0
 26 27  2  0  0  0  0
 27 28  1  0  0  0  0
 28 29  2  0  0  0  0
 29 30  1  0  0  0  0
 31 32  1  1  0  0  0
 31 33  1  0  0  0  0
M  END
$$$$
Bortrioxid
 OpenBabel03171423152D

  4  3  0  0  0  0  0  0  0  0999 V2000
    1.2375    0.7145    0.0000 O   0  0  0  0  0  0  0  0  0  0  0  0
    0.8250    0.0000    0.0000 B   0  0  0  0  0  0  0  0  0  0  0  0
    1.2375   -0.7145    0.0000 O   0  0  0  0  0  0  0  0  0  0  0  0
    0.0000    0.0000    0.0000 O   0  0  0  0  0  0  0  0  0  0  0  0
  1  2  1  0  0  0  0
  2  3  1  0  0  0  0
  2  4  1  0  0  0  0
M  END
$$$$
pyrethrin I
 OpenBabel03171423152D

 24 25  0  0  1  0  0  0  0  0999 V2000
   -8.7775    2.3120    0.0000 C   0  0  0  0  0  0  0  0  0  0  0  0
   -7.9571    2.2258    0.0000 C   0  0  0  0  0  0  0  0  0  0  0  0
   -7.6215    1.4721    0.0000 C   0  0  0  0  0  0  0  0  0  0  0  0
   -6.8010    1.3859    0.0000 C   0  0  0  0  0  0  0  0  0  0  0  0
   -6.3161    2.0533    0.0000 C   0  0  0  0  0  0  0  0  0  0  0  0
   -5.4956    1.9671    0.0000 C   0  0  0  0  0  0  0  0  0  0  0  0
   -4.9436    2.5802    0.0000 C   0  0  0  0  0  0  0  0  0  0  0  0
   -5.1151    3.3872    0.0000 C   0  0  0  0  0  0  0  0  0  0  0  0
   -4.1899    2.2446    0.0000 C   0  0  1  0  0  0  0  0  0  0  0  0
   -3.4754    2.6571    0.0000 O   0  0  0  0  0  0  0  0  0  0  0  0
   -2.7610    2.2446    0.0000 C   0  0  0  0  0  0  0  0  0  0  0  0
   -2.7610    1.4196    0.0000 O   0  0  0  0  0  0  0  0  0  0  0  0
   -2.0465    2.6571    0.0000 C   0  0  1  0  0  0  0  0  0  0  0  0
   -1.6340    3.3716    0.0000 C   0  0  0  0  0  0  0  0  0  0  0  0
   -2.2660    3.9019    0.0000 C   0  0  0  0  0  0  0  0  0  0  0  0
   -1.0020    3.9019    0.0000 C   0  0  0  0  0  0  0  0  0  0  0  0
   -1.2215    2.6571    0.0000 C   0  0  2  0  0  0  0  0  0  0  0  0
   -0.5070    2.2446    0.0000 C   0  0  0  0  0  0  0  0  0  0  0  0
   -0.5070    1.4196    0.0000 C   0  0  0  0  0  0  0  0  0  0  0  0
    0.2075    1.0071    0.0000 C   0  0  0  0  0  0  0  0  0  0  0  0
   -1.2215    1.0071    0.0000 C   0  0  0  0  0  0  0  0  0  0  0  0
   -4.2761    1.4242    0.0000 C   0  0  0  0  0  0  0  0  0  0  0  0
   -5.0831    1.2526    0.0000 C   0  0  0  0  0  0  0  0  0  0  0  0
   -5.4187    0.4990    0.0000 O   0  0  0  0  0  0  0  0  0  0  0  0
  1  2  2  0  0  0  0
  2  3  1  0  0  0  0
  3  4  2  0  0  0  0
  4  5  1  0  0  0  0
  5  6  1  0  0  0  0
  6  7  2  0  0  0  0
  6 23  1  0  0  0  0
  7  8  1  0  0  0  0
  7  9  1  0  0  0  0
  9 10  1  1  0  0  0
  9 22  1  0  0  0  0
 10 11  1  0  0  0  0
 11 12  2  0  0  0  0
 13 11  1  1  0  0  0
 13 14  1  0  0  0  0
 13 17  1  0  0  0  0
 14 15  1  0  0  0  0
 14 16  1  0  0  0  0
 14 17  1  0  0  0  0
 17 18  1  6  0  0  0
 18 19  2  0  0  0  0
 19 20  1  0  0  0  0
 19 21  1  0  0  0  0
 22 23  1  0  0  0  0
 23 24  2  0  0  0  0
M  END
$$$$
famoxadone
 OpenBabel03171423152D

 28 31  0  0  0  0  0  0  0  0999 V2000
    3.7068   -1.4267    0.0000 C   0  0  0  0  0  0  0  0  0  0  0  0
    4.2588   -2.0398    0.0000 C   0  0  3  0  0  0  0  0  0  0  0  0
    4.9262   -2.5247    0.0000 O   0  0  0  0  0  0  0  0  0  0  0  0
    4.6713   -3.3093    0.0000 C   0  0  0  0  0  0  0  0  0  0  0  0
    5.1562   -3.9768    0.0000 O   0  0  0  0  0  0  0  0  0  0  0  0
    3.8463   -3.3093    0.0000 N   0  0  0  0  0  0  0  0  0  0  0  0
    3.3614   -3.9768    0.0000 N   0  0  0  0  0  0  0  0  0  0  0  0
    3.6969   -4.7305    0.0000 C   0  0  0  0  0  0  0  0  0  0  0  0
    4.5174   -4.8167    0.0000 C   0  0  0  0  0  0  0  0  0  0  0  0
    4.8530   -5.5704    0.0000 C   0  0  0  0  0  0  0  0  0  0  0  0
    4.3681   -6.2378    0.0000 C   0  0  0  0  0  0  0  0  0  0  0  0
    3.5476   -6.1516    0.0000 C   0  0  0  0  0  0  0  0  0  0  0  0
    3.2120   -5.3979    0.0000 C   0  0  0  0  0  0  0  0  0  0  0  0
    3.5914   -2.5247    0.0000 C   0  0  0  0  0  0  0  0  0  0  0  0
    2.8067   -2.2698    0.0000 O   0  0  0  0  0  0  0  0  0  0  0  0
    4.8108   -1.4267    0.0000 C   0  0  0  0  0  0  0  0  0  0  0  0
    4.5559   -0.6421    0.0000 C   0  0  0  0  0  0  0  0  0  0  0  0
    5.1079   -0.0290    0.0000 C   0  0  0  0  0  0  0  0  0  0  0  0
    5.9149   -0.2005    0.0000 C   0  0  0  0  0  0  0  0  0  0  0  0
    6.4669    0.4126    0.0000 O   0  0  0  0  0  0  0  0  0  0  0  0
    7.2739    0.2410    0.0000 C   0  0  0  0  0  0  0  0  0  0  0  0
    7.8259    0.8541    0.0000 C   0  0  0  0  0  0  0  0  0  0  0  0
    8.6329    0.6826    0.0000 C   0  0  0  0  0  0  0  0  0  0  0  0
    8.8879   -0.1020    0.0000 C   0  0  0  0  0  0  0  0  0  0  0  0
    8.3358   -0.7151    0.0000 C   0  0  0  0  0  0  0  0  0  0  0  0
    7.5288   -0.5436    0.0000 C   0  0  0  0  0  0  0  0  0  0  0  0
    6.1698   -0.9851    0.0000 C   0  0  0  0  0  0  0  0  0  0  0  0
    5.6178   -1.5982    0.0000 C   0  0  0  0  0  0  0  0  0  0  0  0
  1  2  1  0  0  0  0
  2  3  1  0  0  0  0
  2 14  1  0  0  0  0
  2 16  1  0  0  0  0
  3  4  1  0  0  0  0
  4  5  2  0  0  0  0
  4  6  1  0  0  0  0
  6  7  1  0  0  0  0
  6 14  1  0  0  0  0
  7  8  1  0  0  0  0
  8  9  2  0  0  0  0
  8 13  1  0  0  0  0
  9 10  1  0  0  0  0
 10 11  2  0  0  0  0
 11 12  1  0  0  0  0
 12 13  2  0  0  0  0
 14 15  2  0  0  0  0
 16 17  2  0  0  0  0
 16 28  1  0  0  0  0
 17 18  1  0  0  0  0
 18 19  2  0  0  0  0
 19 20  1  0  0  0  0
 19 27  1  0  0  0  0
 20 21  1  0  0  0  0
 21 22  2  0  0  0  0
 21 26  1  0  0  0  0
 22 23  1  0  0  0  0
 23 24  2  0  0  0  0
 24 25  1  0  0  0  0
 25 26  2  0  0  0  0
 27 28  2  0  0  0  0
M  END
$$$$
Mecoprop
 OpenBabel03171423152D

 14 14  0  0  0  0  0  0  0  0999 V2000
   -0.7145    2.0625    0.0000 C   0  0  0  0  0  0  0  0  0  0  0  0
    0.0000    2.4750    0.0000 C   0  0  3  0  0  0  0  0  0  0  0  0
    0.7145    2.0625    0.0000 O   0  0  0  0  0  0  0  0  0  0  0  0
    0.7145    1.2375    0.0000 C   0  0  0  0  0  0  0  0  0  0  0  0
    1.4289    0.8250    0.0000 C   0  0  0  0  0  0  0  0  0  0  0  0
    2.1434    1.2375    0.0000 C   0  0  0  0  0  0  0  0  0  0  0  0
    1.4289   -0.0000    0.0000 C   0  0  0  0  0  0  0  0  0  0  0  0
    0.7145   -0.4125    0.0000 C   0  0  0  0  0  0  0  0  0  0  0  0
    0.7145   -1.2375    0.0000 Cl  0  0  0  0  0  0  0  0  0  0  0  0
    0.0000    0.0000    0.0000 C   0  0  0  0  0  0  0  0  0  0  0  0
    0.0000    0.8250    0.0000 C   0  0  0  0  0  0  0  0  0  0  0  0
    0.0000    3.3000    0.0000 C   0  0  0  0  0  0  0  0  0  0  0  0
   -0.7145    3.7125    0.0000 O   0  0  0  0  0  0  0  0  0  0  0  0
    0.7145    3.7125    0.0000 O   0  0  0  0  0  0  0  0  0  0  0  0
  1  2  1  0  0  0  0
  2  3  1  0  0  0  0
  2 12  1  0  0  0  0
  3  4  1  0  0  0  0
  4  5  2  0  0  0  0
  4 11  1  0  0  0  0
  5  6  1  0  0  0  0
  5  7  1  0  0  0  0
  7  8  2  0  0  0  0
  8  9  1  0  0  0  0
  8 10  1  0  0  0  0
 10 11  2  0  0  0  0
 12 13  1  0  0  0  0
 12 14  2  0  0  0  0
M  END
$$$$
diiodomethane
 OpenBabel03171423152D

  3  2  0  0  0  0  0  0  0  0999 V2000
    1.2375   -0.7145    0.0000 I   0  0  0  0  0  0  0  0  0  0  0  0
    1.9520   -1.1270    0.0000 C   0  0  0  0  0  0  0  0  0  0  0  0
    2.6664   -0.7145    0.0000 I   0  0  0  0  0  0  0  0  0  0  0  0
  1  2  1  0  0  0  0
  2  3  1  0  0  0  0
M  END
$$$$
dimethylethylbenzyl ammonium chloride
 OpenBabel03171423152D

 13 12  0  0  0  0  0  0  0  0999 V2000
    0.0000    0.0000    0.0000 Cl  0  5  0  0  0  0  0  0  0  0  0  0
    2.2393    2.1656    0.0000 C   0  0  0  0  0  0  0  0  0  0  0  0
    2.2393    1.3406    0.0000 C   0  0  0  0  0  0  0  0  0  0  0  0
    2.9538    0.9281    0.0000 N   0  3  0  0  0  0  0  0  0  0  0  0
    2.5413    0.2137    0.0000 C   0  0  0  0  0  0  0  0  0  0  0  0
    3.3663    1.6426    0.0000 C   0  0  0  0  0  0  0  0  0  0  0  0
    3.6682    0.5156    0.0000 C   0  0  0  0  0  0  0  0  0  0  0  0
    3.6682   -0.3094    0.0000 C   0  0  0  0  0  0  0  0  0  0  0  0
    4.3827   -0.7219    0.0000 C   0  0  0  0  0  0  0  0  0  0  0  0
    4.3827   -1.5469    0.0000 C   0  0  0  0  0  0  0  0  0  0  0  0
    3.6682   -1.9594    0.0000 C   0  0  0  0  0  0  0  0  0  0  0  0
    2.9538   -1.5469    0.0000 C   0  0  0  0  0  0  0  0  0  0  0  0
    2.9538   -0.7219    0.0000 C   0  0  0  0  0  0  0  0  0  0  0  0
  2  3  1  0  0  0  0
  3  4  1  0  0  0  0
  4  5  1  0  0  0  0
  4  6  1  0  0  0  0
  4  7  1  0  0  0  0
  7  8  1  0  0  0  0
  8  9  2  0  0  0  0
  8 13  1  0  0  0  0
  9 10  1  0  0  0  0
 10 11  2  0  0  0  0
 11 12  1  0  0  0  0
 12 13  2  0  0  0  0
M  CHG  2   1  -1   4   1
M  END
$$$$
1,3,5-hexatrienylbenzene
 OpenBabel03171423152D

 12 12  0  0  0  0  0  0  0  0999 V2000
   -1.4289    4.9500    0.0000 C   0  0  0  0  0  0  0  0  0  0  0  0
   -0.7145    4.5375    0.0000 C   0  0  0  0  0  0  0  0  0  0  0  0
   -0.7145    3.7125    0.0000 C   0  0  0  0  0  0  0  0  0  0  0  0
    0.0000    3.3000    0.0000 C   0  0  0  0  0  0  0  0  0  0  0  0
    0.0000    2.4750    0.0000 C   0  0  0  0  0  0  0  0  0  0  0  0
    0.7145    2.0625    0.0000 C   0  0  0  0  0  0  0  0  0  0  0  0
    0.7145    1.2375    0.0000 C   0  0  0  0  0  0  0  0  0  0  0  0
    1.4289    0.8250    0.0000 C   0  0  0  0  0  0  0  0  0  0  0  0
    1.4289   -0.0000    0.0000 C   0  0  0  0  0  0  0  0  0  0  0  0
    0.7145   -0.4125    0.0000 C   0  0  0  0  0  0  0  0  0  0  0  0
    0.0000    0.0000    0.0000 C   0  0  0  0  0  0  0  0  0  0  0  0
    0.0000    0.8250    0.0000 C   0  0  0  0  0  0  0  0  0  0  0  0
  1  2  2  0  0  0  0
  3  2  1  0  0  0  0
  3  4  2  3  0  0  0
  5  4  1  0  0  0  0
  5  6  2  3  0  0  0
  6  7  1  0  0  0  0
  7  8  2  0  0  0  0
  7 12  1  0  0  0  0
  8  9  1  0  0  0  0
  9 10  2  0  0  0  0
 10 11  1  0  0  0  0
 11 12  2  0  0  0  0
M  END
$$$$
2-butyl-benzo[d]isothiazol-3-on
 OpenBabel03171423152D

 14 15  0  0  0  0  0  0  0  0999 V2000
   -1.8212   -2.1269    0.0000 C   0  0  0  0  0  0  0  0  0  0  0  0
   -1.4087   -1.4124    0.0000 C   0  0  0  0  0  0  0  0  0  0  0  0
   -0.5837   -1.4124    0.0000 C   0  0  0  0  0  0  0  0  0  0  0  0
   -0.1712   -0.6979    0.0000 C   0  0  0  0  0  0  0  0  0  0  0  0
    0.6538   -0.6979    0.0000 N   0  0  0  0  0  0  0  0  0  0  0  0
    1.1387   -0.0305    0.0000 S   0  0  0  0  0  0  0  0  0  0  0  0
    1.9233   -0.2854    0.0000 C   0  0  0  0  0  0  0  0  0  0  0  0
    2.6378    0.1271    0.0000 C   0  0  0  0  0  0  0  0  0  0  0  0
    3.3523   -0.2854    0.0000 C   0  0  0  0  0  0  0  0  0  0  0  0
    3.3523   -1.1104    0.0000 C   0  0  0  0  0  0  0  0  0  0  0  0
    2.6378   -1.5229    0.0000 C   0  0  0  0  0  0  0  0  0  0  0  0
    1.9233   -1.1104    0.0000 C   0  0  0  0  0  0  0  0  0  0  0  0
    1.1387   -1.3654    0.0000 C   0  0  0  0  0  0  0  0  0  0  0  0
    0.8838   -2.1500    0.0000 O   0  0  0  0  0  0  0  0  0  0  0  0
  1  2  1  0  0  0  0
  2  3  1  0  0  0  0
  3  4  1  0  0  0  0
  4  5  1  0  0  0  0
  5  6  1  0  0  0  0
  5 13  1  0  0  0  0
  6  7  1  0  0  0  0
  7  8  2  0  0  0  0
  7 12  1  0  0  0  0
  8  9  1  0  0  0  0
  9 10  2  0  0  0  0
 10 11  1  0  0  0  0
 11 12  2  0  0  0  0
 12 13  1  0  0  0  0
 13 14  2  0  0  0  0
M  END
$$$$
dimethylether
 OpenBabel03171423152D

  3  2  0  0  0  0  0  0  0  0999 V2000
    1.2375   -0.7145    0.0000 C   0  0  0  0  0  0  0  0  0  0  0  0
    1.9520   -1.1270    0.0000 O   0  0  0  0  0  0  0  0  0  0  0  0
    2.6664   -0.7145    0.0000 C   0  0  0  0  0  0  0  0  0  0  0  0
  1  2  1  0  0  0  0
  2  3  1  0  0  0  0
M  END
$$$$
triethylamine
 OpenBabel03171423152D

  7  6  0  0  0  0  0  0  0  0999 V2000
    2.4750    0.0000    0.0000 C   0  0  0  0  0  0  0  0  0  0  0  0
    2.0625    0.7145    0.0000 C   0  0  0  0  0  0  0  0  0  0  0  0
    1.2375    0.7145    0.0000 N   0  0  0  0  0  0  0  0  0  0  0  0
    0.8250    1.4289    0.0000 C   0  0  0  0  0  0  0  0  0  0  0  0
   -0.0000    1.4289    0.0000 C   0  0  0  0  0  0  0  0  0  0  0  0
    0.8250    0.0000    0.0000 C   0  0  0  0  0  0  0  0  0  0  0  0
    0.0000    0.0000    0.0000 C   0  0  0  0  0  0  0  0  0  0  0  0
  1  2  1  0  0  0  0
  2  3  1  0  0  0  0
  3  4  1  0  0  0  0
  3  6  1  0  0  0  0
  4  5  1  0  0  0  0
  6  7  1  0  0  0  0
M  END
$$$$
sulfentrazone
 OpenBabel03171423152D

 23 24  0  0  0  0  0  0  0  0999 V2000
    0.7145   -0.4125    0.0000 C   0  0  0  0  0  0  0  0  0  0  0  0
    0.7145   -1.2375    0.0000 C   0  0  0  0  0  0  0  0  0  0  0  0
    1.3819   -1.7224    0.0000 N   0  0  0  0  0  0  0  0  0  0  0  0
    1.1270   -2.5070    0.0000 N   0  0  0  0  0  0  0  0  0  0  0  0
    0.3020   -2.5070    0.0000 C   0  0  0  0  0  0  0  0  0  0  0  0
   -0.1830   -3.1745    0.0000 O   0  0  0  0  0  0  0  0  0  0  0  0
    0.0470   -1.7224    0.0000 N   0  0  0  0  0  0  0  0  0  0  0  0
   -0.7376   -1.4675    0.0000 C   0  0  0  0  0  0  0  0  0  0  0  0
   -0.9091   -0.6605    0.0000 F   0  0  0  0  0  0  0  0  0  0  0  0
   -1.3507   -2.0195    0.0000 F   0  0  0  0  0  0  0  0  0  0  0  0
    1.6119   -3.1745    0.0000 C   0  0  0  0  0  0  0  0  0  0  0  0
    2.4324   -3.0882    0.0000 C   0  0  0  0  0  0  0  0  0  0  0  0
    2.9173   -3.7557    0.0000 C   0  0  0  0  0  0  0  0  0  0  0  0
    3.7378   -3.6695    0.0000 N   0  0  0  0  0  0  0  0  0  0  0  0
    4.0733   -2.9158    0.0000 S   0  0  0  0  0  0  0  0  0  0  0  0
    4.4089   -2.1621    0.0000 C   0  0  0  0  0  0  0  0  0  0  0  0
    4.8270   -3.2513    0.0000 O   0  0  0  0  0  0  0  0  0  0  0  0
    3.3197   -2.5802    0.0000 O   0  0  0  0  0  0  0  0  0  0  0  0
    2.5817   -4.5094    0.0000 C   0  0  0  0  0  0  0  0  0  0  0  0
    3.0667   -5.1768    0.0000 Cl  0  0  0  0  0  0  0  0  0  0  0  0
    1.7613   -4.5956    0.0000 C   0  0  0  0  0  0  0  0  0  0  0  0
    1.2763   -3.9282    0.0000 C   0  0  0  0  0  0  0  0  0  0  0  0
    0.4559   -4.0144    0.0000 Cl  0  0  0  0  0  0  0  0  0  0  0  0
  1  2  1  0  0  0  0
  2  3  2  0  0  0  0
  2  7  1  0  0  0  0
  3  4  1  0  0  0  0
  4  5  1  0  0  0  0
  4 11  1  0  0  0  0
  5  6  2  0  0  0  0
  5  7  1  0  0  0  0
  7  8  1  0  0  0  0
  8  9  1  0  0  0  0
  8 10  1  0  0  0  0
 11 12  2  0  0  0  0
 11 22  1  0  0  0  0
 12 13  1  0  0  0  0
 13 14  1  0  0  0  0
 13 19  2  0  0  0  0
 14 15  1  0  0  0  0
 15 16  1  0  0  0  0
 15 17  2  0  0  0  0
 15 18  2  0  0  0  0
 19 20  1  0  0  0  0
 19 21  1  0  0  0  0
 21 22  2  0  0  0  0
 22 23  1  0  0  0  0
M  END
$$$$
Ziram
 OpenBabel03171423152D

 13 12  0  0  0  0  0  0  0  0999 V2000
    3.5014    0.8889    0.0000 C   0  0  0  0  0  0  0  0  0  0  0  0
    4.1250    1.4289    0.0000 N   0  0  0  0  0  0  0  0  0  0  0  0
    3.9691    2.2391    0.0000 C   0  0  0  0  0  0  0  0  0  0  0  0
    4.9046    1.1589    0.0000 C   0  0  0  0  0  0  0  0  0  0  0  0
    5.0605    0.3488    0.0000 S   0  0  0  0  0  0  0  0  0  0  0  0
    5.5282    1.6990    0.0000 S   0  0  0  0  0  0  0  0  0  0  0  0
    6.3077    1.4289    0.0000 Zn  0  0  0  0  0  0  0  0  0  0  0  0
    7.0873    1.1589    0.0000 S   0  0  0  0  0  0  0  0  0  0  0  0
    7.7109    1.6990    0.0000 C   0  0  0  0  0  0  0  0  0  0  0  0
    7.5550    2.5091    0.0000 S   0  0  0  0  0  0  0  0  0  0  0  0
    8.4905    1.4289    0.0000 N   0  0  0  0  0  0  0  0  0  0  0  0
    9.1141    1.9690    0.0000 C   0  0  0  0  0  0  0  0  0  0  0  0
    8.6464    0.6188    0.0000 C   0  0  0  0  0  0  0  0  0  0  0  0
  1  2  1  0  0  0  0
  2  3  1  0  0  0  0
  2  4  1  0  0  0  0
  4  5  2  0  0  0  0
  4  6  1  0  0  0  0
  6  7  1  0  0  0  0
  7  8  1  0  0  0  0
  8  9  1  0  0  0  0
  9 10  2  0  0  0  0
  9 11  1  0  0  0  0
 11 12  1  0  0  0  0
 11 13  1  0  0  0  0
M  END
>  <type>
common

$$$$
tralomethrin
 OpenBabel03171423152D

 30 32  0  0  1  0  0  0  0  0999 V2000
   -3.1879   -6.6073    0.0000 C   0  0  0  0  0  0  0  0  0  0  0  0
   -2.5559   -6.0770    0.0000 C   0  0  0  0  0  0  0  0  0  0  0  0
   -1.9239   -6.6073    0.0000 C   0  0  0  0  0  0  0  0  0  0  0  0
   -2.9684   -5.3625    0.0000 C   0  0  1  0  0  0  0  0  0  0  0  0
   -3.6829   -4.9500    0.0000 C   0  0  3  0  0  0  0  0  0  0  0  0
   -3.6829   -4.1250    0.0000 Br  0  0  0  0  0  0  0  0  0  0  0  0
   -4.3974   -5.3625    0.0000 C   0  0  0  0  0  0  0  0  0  0  0  0
   -5.1118   -5.7750    0.0000 Br  0  0  0  0  0  0  0  0  0  0  0  0
   -3.9849   -6.0770    0.0000 Br  0  0  0  0  0  0  0  0  0  0  0  0
   -4.8099   -4.6480    0.0000 Br  0  0  0  0  0  0  0  0  0  0  0  0
   -2.1434   -5.3625    0.0000 C   0  0  1  0  0  0  0  0  0  0  0  0
   -1.4289   -4.9500    0.0000 C   0  0  0  0  0  0  0  0  0  0  0  0
   -0.7145   -5.3625    0.0000 O   0  0  0  0  0  0  0  0  0  0  0  0
   -1.4289   -4.1250    0.0000 O   0  0  0  0  0  0  0  0  0  0  0  0
   -0.7145   -3.7125    0.0000 C   0  0  2  0  0  0  0  0  0  0  0  0
    0.0000   -4.1250    0.0000 C   0  0  0  0  0  0  0  0  0  0  0  0
    0.7145   -4.5375    0.0000 N   0  0  0  0  0  0  0  0  0  0  0  0
   -0.7145   -2.8875    0.0000 C   0  0  0  0  0  0  0  0  0  0  0  0
   -1.4289   -2.4750    0.0000 C   0  0  0  0  0  0  0  0  0  0  0  0
   -1.4289   -1.6500    0.0000 C   0  0  0  0  0  0  0  0  0  0  0  0
   -0.7145   -1.2375    0.0000 C   0  0  0  0  0  0  0  0  0  0  0  0
    0.0000   -1.6500    0.0000 C   0  0  0  0  0  0  0  0  0  0  0  0
    0.7145   -1.2375    0.0000 O   0  0  0  0  0  0  0  0  0  0  0  0
    0.7145   -0.4125    0.0000 C   0  0  0  0  0  0  0  0  0  0  0  0
   -0.0000    0.0000    0.0000 C   0  0  0  0  0  0  0  0  0  0  0  0
   -0.0000    0.8250    0.0000 C   0  0  0  0  0  0  0  0  0  0  0  0
    0.7145    1.2375    0.0000 C   0  0  0  0  0  0  0  0  0  0  0  0
    1.4289    0.8250    0.0000 C   0  0  0  0  0  0  0  0  0  0  0  0
    1.4289    0.0000    0.0000 C   0  0  0  0  0  0  0  0  0  0  0  0
    0.0000   -2.4750    0.0000 C   0  0  0  0  0  0  0  0  0  0  0  0
  1  2  1  0  0  0  0
  2  3  1  0  0  0  0
  2 11  1  0  0  0  0
  4  2  1  1  0  0  0
  4  5  1  0  0  0  0
  4 11  1  0  0  0  0
  5  6  1  0  0  0  0
  5  7  1  0  0  0  0
  7  8  1  0  0  0  0
  7  9  1  0  0  0  0
  7 10  1  0  0  0  0
 11 12  1  1  0  0  0
 12 13  2  0  0  0  0
 12 14  1  0  0  0  0
 15 14  1  1  0  0  0
 15 16  1  0  0  0  0
 15 18  1  0  0  0  0
 16 17  3  0  0  0  0
 18 19  2  0  0  0  0
 18 30  1  0  0  0  0
 19 20  1  0  0  0  0
 20 21  2  0  0  0  0
 21 22  1  0  0  0  0
 22 23  1  0  0  0  0
 22 30  2  0  0  0  0
 23 24  1  0  0  0  0
 24 25  2  0  0  0  0
 24 29  1  0  0  0  0
 25 26  1  0  0  0  0
 26 27  2  0  0  0  0
 27 28  1  0  0  0  0
 28 29  2  0  0  0  0
M  END
>  <type>
common

$$$$
iso-propoxy
 OpenBabel03171423152D

  4  3  0  0  0  0  0  0  0  0999 V2000
    1.2375    0.7145    0.0000 C   0  0  0  0  0  0  0  0  0  0  0  0
    0.8250    0.0000    0.0000 C   0  0  0  0  0  0  0  0  0  0  0  0
    1.2375   -0.7145    0.0000 C   0  0  0  0  0  0  0  0  0  0  0  0
    0.0000    0.0000    0.0000 O   0  0  0  0  0  0  0  0  0  0  0  0
  1  2  1  0  0  0  0
  2  3  1  0  0  0  0
  2  4  1  0  0  0  0
M  END
$$$$
1-Methyl-4-prop-1-en-2-ylcyclohexen
 OpenBabel03171423152D

 10 10  0  0  0  0  0  0  0  0999 V2000
    0.0000    2.4750    0.0000 C   0  0  0  0  0  0  0  0  0  0  0  0
    0.7145    2.0625    0.0000 C   0  0  0  0  0  0  0  0  0  0  0  0
    1.4289    2.4750    0.0000 C   0  0  0  0  0  0  0  0  0  0  0  0
    0.7145    1.2375    0.0000 C   0  0  3  0  0  0  0  0  0  0  0  0
    1.4289    0.8250    0.0000 C   0  0  0  0  0  0  0  0  0  0  0  0
    1.4289   -0.0000    0.0000 C   0  0  0  0  0  0  0  0  0  0  0  0
    0.7145   -0.4125    0.0000 C   0  0  0  0  0  0  0  0  0  0  0  0
    0.7145   -1.2375    0.0000 C   0  0  0  0  0  0  0  0  0  0  0  0
    0.0000    0.0000    0.0000 C   0  0  0  0  0  0  0  0  0  0  0  0
    0.0000    0.8250    0.0000 C   0  0  0  0  0  0  0  0  0  0  0  0
  1  2  1  0  0  0  0
  2  3  2  0  0  0  0
  2  4  1  0  0  0  0
  4  5  1  0  0  0  0
  4 10  1  0  0  0  0
  5  6  1  0  0  0  0
  6  7  1  0  0  0  0
  7  8  1  0  0  0  0
  7  9  2  0  0  0  0
  9 10  1  0  0  0  0
M  END
$$$$
glycine (amine
 OpenBabel03171423152D

  6  5  0  0  0  0  0  0  0  0999 V2000
    2.4750   -1.4289    0.0000 N   0  0  0  0  0  0  0  0  0  0  0  0
    2.0625   -0.7145    0.0000 C   0  0  0  0  0  0  0  0  0  0  0  0
    1.2375   -0.7145    0.0000 C   0  0  0  0  0  0  0  0  0  0  0  0
    0.8250   -1.4289    0.0000 O   0  0  0  0  0  0  0  0  0  0  0  0
    0.8250    0.0000    0.0000 O   0  0  0  0  0  0  0  0  0  0  0  0
    0.0000    0.0000    0.0000 N   0  0  0  0  0  0  0  0  0  0  0  0
  1  2  1  0  0  0  0
  2  3  1  0  0  0  0
  3  4  2  0  0  0  0
  3  5  1  0  0  0  0
  5  6  1  0  0  0  0
M  END
$$$$
imazamox
 OpenBabel03171423152D

 22 23  0  0  0  0  0  0  0  0999 V2000
   -1.7871   -1.8943    0.0000 C   0  0  0  0  0  0  0  0  0  0  0  0
   -1.3022   -1.2269    0.0000 O   0  0  0  0  0  0  0  0  0  0  0  0
   -1.6377   -0.4732    0.0000 C   0  0  0  0  0  0  0  0  0  0  0  0
   -1.1528    0.1942    0.0000 C   0  0  0  0  0  0  0  0  0  0  0  0
   -1.4884    0.9479    0.0000 C   0  0  0  0  0  0  0  0  0  0  0  0
   -1.0034    1.6153    0.0000 N   0  0  0  0  0  0  0  0  0  0  0  0
   -0.1830    1.5291    0.0000 C   0  0  0  0  0  0  0  0  0  0  0  0
    0.3020    2.1965    0.0000 C   0  0  0  0  0  0  0  0  0  0  0  0
    0.0470    2.9812    0.0000 N   0  0  0  0  0  0  0  0  0  0  0  0
    0.7145    3.4661    0.0000 C   0  0  3  0  0  0  0  0  0  0  0  0
    0.1624    4.0792    0.0000 C   0  0  0  0  0  0  0  0  0  0  0  0
    1.2665    4.0792    0.0000 C   0  0  0  0  0  0  0  0  0  0  0  0
    1.0116    4.8638    0.0000 C   0  0  0  0  0  0  0  0  0  0  0  0
    2.0735    3.9076    0.0000 C   0  0  0  0  0  0  0  0  0  0  0  0
    1.3819    2.9812    0.0000 C   0  0  0  0  0  0  0  0  0  0  0  0
    2.1665    3.2361    0.0000 O   0  0  0  0  0  0  0  0  0  0  0  0
    1.1270    2.1965    0.0000 N   0  0  0  0  0  0  0  0  0  0  0  0
    0.1526    0.7754    0.0000 C   0  0  0  0  0  0  0  0  0  0  0  0
   -0.3323    0.1080    0.0000 C   0  0  0  0  0  0  0  0  0  0  0  0
    0.9731    0.6892    0.0000 C   0  0  0  0  0  0  0  0  0  0  0  0
    1.3086   -0.0645    0.0000 O   0  0  0  0  0  0  0  0  0  0  0  0
    1.4580    1.3566    0.0000 O   0  0  0  0  0  0  0  0  0  0  0  0
  1  2  1  0  0  0  0
  2  3  1  0  0  0  0
  3  4  1  0  0  0  0
  4  5  2  0  0  0  0
  4 19  1  0  0  0  0
  5  6  1  0  0  0  0
  6  7  2  0  0  0  0
  7  8  1  0  0  0  0
  7 18  1  0  0  0  0
  8  9  2  0  0  0  0
  8 17  1  0  0  0  0
  9 10  1  0  0  0  0
 10 11  1  0  0  0  0
 10 12  1  0  0  0  0
 10 15  1  0  0  0  0
 12 13  1  0  0  0  0
 12 14  1  0  0  0  0
 15 16  2  0  0  0  0
 15 17  1  0  0  0  0
 18 19  2  0  0  0  0
 18 20  1  0  0  0  0
 20 21  1  0  0  0  0
 20 22  2  0  0  0  0
M  END
$$$$
ethanol-iodine
 OpenBabel03171423152D

  4  3  0  0  0  0  0  0  0  0999 V2000
    1.2375    0.7145    0.0000 I   0  0  0  0  0  0  0  0  0  0  0  0
    0.8250    0.0000    0.0000 C   0  0  3  0  0  0  0  0  0  0  0  0
    1.2375   -0.7145    0.0000 C   0  0  0  0  0  0  0  0  0  0  0  0
    0.0000    0.0000    0.0000 O   0  0  0  0  0  0  0  0  0  0  0  0
  1  2  1  0  0  0  0
  2  3  1  0  0  0  0
  2  4  1  0  0  0  0
M  END
>  <type>
systematic

$$$$
Ethanol
 OpenBabel03171423152D

  3  2  0  0  0  0  0  0  0  0999 V2000
    1.2375   -0.7145    0.0000 C   0  0  0  0  0  0  0  0  0  0  0  0
    1.9520   -1.1270    0.0000 C   0  0  0  0  0  0  0  0  0  0  0  0
    2.6664   -0.7145    0.0000 O   0  0  0  0  0  0  0  0  0  0  0  0
  1  2  1  0  0  0  0
  2  3  1  0  0  0  0
M  END
$$$$
siduron
 OpenBabel03171423152D

 17 18  0  0  0  0  0  0  0  0999 V2000
    2.8579   -1.6500    0.0000 C   0  0  0  0  0  0  0  0  0  0  0  0
    2.8579   -2.4750    0.0000 C   0  0  3  0  0  0  0  0  0  0  0  0
    3.5724   -2.8875    0.0000 C   0  0  0  0  0  0  0  0  0  0  0  0
    3.5724   -3.7125    0.0000 C   0  0  0  0  0  0  0  0  0  0  0  0
    2.8579   -4.1250    0.0000 C   0  0  0  0  0  0  0  0  0  0  0  0
    2.1434   -3.7125    0.0000 C   0  0  0  0  0  0  0  0  0  0  0  0
    2.1434   -2.8875    0.0000 C   0  0  3  0  0  0  0  0  0  0  0  0
    1.4289   -2.4750    0.0000 N   0  0  0  0  0  0  0  0  0  0  0  0
    1.4289   -1.6500    0.0000 C   0  0  0  0  0  0  0  0  0  0  0  0
    2.1434   -1.2375    0.0000 O   0  0  0  0  0  0  0  0  0  0  0  0
    0.7145   -1.2375    0.0000 N   0  0  0  0  0  0  0  0  0  0  0  0
    0.7145   -0.4125    0.0000 C   0  0  0  0  0  0  0  0  0  0  0  0
    0.0000    0.0000    0.0000 C   0  0  0  0  0  0  0  0  0  0  0  0
    0.0000    0.8250    0.0000 C   0  0  0  0  0  0  0  0  0  0  0  0
    0.7145    1.2375    0.0000 C   0  0  0  0  0  0  0  0  0  0  0  0
    1.4289    0.8250    0.0000 C   0  0  0  0  0  0  0  0  0  0  0  0
    1.4289    0.0000    0.0000 C   0  0  0  0  0  0  0  0  0  0  0  0
  1  2  1  0  0  0  0
  2  3  1  0  0  0  0
  2  7  1  0  0  0  0
  3  4  1  0  0  0  0
  4  5  1  0  0  0  0
  5  6  1  0  0  0  0
  6  7  1  0  0  0  0
  7  8  1  0  0  0  0
  8  9  1  0  0  0  0
  9 10  2  0  0  0  0
  9 11  1  0  0  0  0
 11 12  1  0  0  0  0
 12 13  2  0  0  0  0
 12 17  1  0  0  0  0
 13 14  1  0  0  0  0
 14 15  2  0  0  0  0
 15 16  1  0  0  0  0
 16 17  2  0  0  0  0
M  END
$$$$
benzoic acid
 OpenBabel03171423152D

  9  9  0  0  0  0  0  0  0  0999 V2000
    0.0000    2.4750    0.0000 O   0  0  0  0  0  0  0  0  0  0  0  0
    0.7145    2.0625    0.0000 C   0  0  0  0  0  0  0  0  0  0  0  0
    1.4289    2.4750    0.0000 O   0  0  0  0  0  0  0  0  0  0  0  0
    0.7145    1.2375    0.0000 C   0  0  0  0  0  0  0  0  0  0  0  0
    1.4289    0.8250    0.0000 C   0  0  0  0  0  0  0  0  0  0  0  0
    1.4289   -0.0000    0.0000 C   0  0  0  0  0  0  0  0  0  0  0  0
    0.7145   -0.4125    0.0000 C   0  0  0  0  0  0  0  0  0  0  0  0
    0.0000    0.0000    0.0000 C   0  0  0  0  0  0  0  0  0  0  0  0
    0.0000    0.8250    0.0000 C   0  0  0  0  0  0  0  0  0  0  0  0
  1  2  1  0  0  0  0
  2  3  2  0  0  0  0
  2  4  1  0  0  0  0
  4  5  2  0  0  0  0
  4  9  1  0  0  0  0
  5  6  1  0  0  0  0
  6  7  2  0  0  0  0
  7  8  1  0  0  0  0
  8  9  2  0  0  0  0
M  END
$$$$
calcium ion
 OpenBabel03171423152D

  1  0  0  0  0  0  0  0  0  0999 V2000
    0.0000    0.0000    0.0000 Ca  0  2  0  0  0 15  0  0  0  0  0  0
M  CHG  1   1   2
M  END
>  <type>
systematic

$$$$
Caprylic Acid
 OpenBabel03171423152D

 10  9  0  0  0  0  0  0  0  0999 V2000
    2.9980    2.5559    0.0000 C   0  0  0  0  0  0  0  0  0  0  0  0
    3.7125    2.1434    0.0000 C   0  0  0  0  0  0  0  0  0  0  0  0
    4.4270    2.5559    0.0000 C   0  0  0  0  0  0  0  0  0  0  0  0
    5.1414    2.1434    0.0000 C   0  0  0  0  0  0  0  0  0  0  0  0
    5.8559    2.5559    0.0000 C   0  0  0  0  0  0  0  0  0  0  0  0
    6.5704    2.1434    0.0000 C   0  0  0  0  0  0  0  0  0  0  0  0
    7.2849    2.5559    0.0000 C   0  0  0  0  0  0  0  0  0  0  0  0
    7.9993    2.1434    0.0000 C   0  0  0  0  0  0  0  0  0  0  0  0
    8.7138    2.5559    0.0000 O   0  0  0  0  0  0  0  0  0  0  0  0
    7.9993    1.3184    0.0000 O   0  0  0  0  0  0  0  0  0  0  0  0
  1  2  1  0  0  0  0
  2  3  1  0  0  0  0
  3  4  1  0  0  0  0
  4  5  1  0  0  0  0
  5  6  1  0  0  0  0
  6  7  1  0  0  0  0
  7  8  1  0  0  0  0
  8  9  1  0  0  0  0
  8 10  2  0  0  0  0
M  END
$$$$
naphthalenesulfonic acid
 OpenBabel03171423152D

 14 15  0  0  0  0  0  0  0  0999 V2000
    0.0000    1.6500    0.0000 O   0  0  0  0  0  0  0  0  0  0  0  0
    0.0000    0.8250    0.0000 S   0  0  0  0  0  0  0  0  0  0  0  0
   -0.8250    0.8250    0.0000 O   0  0  0  0  0  0  0  0  0  0  0  0
    0.8250    0.8250    0.0000 O   0  0  0  0  0  0  0  0  0  0  0  0
    0.0000   -0.0000    0.0000 C   0  0  0  0  0  0  0  0  0  0  0  0
   -0.7145   -0.4125    0.0000 C   0  0  0  0  0  0  0  0  0  0  0  0
   -0.7145   -1.2375    0.0000 C   0  0  0  0  0  0  0  0  0  0  0  0
    0.0000   -1.6500    0.0000 C   0  0  0  0  0  0  0  0  0  0  0  0
    0.7145   -1.2375    0.0000 C   0  0  0  0  0  0  0  0  0  0  0  0
    0.7145   -0.4125    0.0000 C   0  0  0  0  0  0  0  0  0  0  0  0
    1.4289   -0.0000    0.0000 C   0  0  0  0  0  0  0  0  0  0  0  0
    2.1434   -0.4125    0.0000 C   0  0  0  0  0  0  0  0  0  0  0  0
    2.1434   -1.2375    0.0000 C   0  0  0  0  0  0  0  0  0  0  0  0
    1.4289   -1.6500    0.0000 C   0  0  0  0  0  0  0  0  0  0  0  0
  1  2  1  0  0  0  0
  2  3  2  0  0  0  0
  2  4  2  0  0  0  0
  2  5  1  0  0  0  0
  5  6  2  0  0  0  0
  5 10  1  0  0  0  0
  6  7  1  0  0  0  0
  7  8  2  0  0  0  0
  8  9  1  0  0  0  0
  9 10  2  0  0  0  0
  9 14  1  0  0  0  0
 10 11  1  0  0  0  0
 11 12  2  0  0  0  0
 12 13  1  0  0  0  0
 13 14  2  0  0  0  0
M  END
$$$$
M-cresol
 OpenBabel03171423152D

  8  8  0  0  0  0  0  0  0  0999 V2000
    0.7145    2.0625    0.0000 C   0  0  0  0  0  0  0  0  0  0  0  0
    0.7145    1.2375    0.0000 C   0  0  0  0  0  0  0  0  0  0  0  0
    1.4289    0.8250    0.0000 C   0  0  0  0  0  0  0  0  0  0  0  0
    1.4289   -0.0000    0.0000 C   0  0  0  0  0  0  0  0  0  0  0  0
    2.1434   -0.4125    0.0000 O   0  0  0  0  0  0  0  0  0  0  0  0
    0.7145   -0.4125    0.0000 C   0  0  0  0  0  0  0  0  0  0  0  0
    0.0000    0.0000    0.0000 C   0  0  0  0  0  0  0  0  0  0  0  0
    0.0000    0.8250    0.0000 C   0  0  0  0  0  0  0  0  0  0  0  0
  1  2  1  0  0  0  0
  2  3  2  0  0  0  0
  2  8  1  0  0  0  0
  3  4  1  0  0  0  0
  4  5  1  0  0  0  0
  4  6  2  0  0  0  0
  6  7  1  0  0  0  0
  7  8  2  0  0  0  0
M  END
$$$$
1,3-dichloro-5,5-dimethyl-2,4-imidazolidinedione
 OpenBabel03171423152D

 11 11  0  0  0  0  0  0  0  0999 V2000
    1.1198    1.7274    0.0000 C   0  0  0  0  0  0  0  0  0  0  0  0
    0.5678    1.1143    0.0000 C   0  0  0  0  0  0  0  0  0  0  0  0
    0.0157    1.7274    0.0000 C   0  0  0  0  0  0  0  0  0  0  0  0
    1.2352    0.6294    0.0000 N   0  0  0  0  0  0  0  0  0  0  0  0
    2.0198    0.8843    0.0000 Cl  0  0  0  0  0  0  0  0  0  0  0  0
    0.9803   -0.1553    0.0000 C   0  0  0  0  0  0  0  0  0  0  0  0
    1.4652   -0.8227    0.0000 O   0  0  0  0  0  0  0  0  0  0  0  0
    0.1553   -0.1553    0.0000 N   0  0  0  0  0  0  0  0  0  0  0  0
   -0.3297   -0.8227    0.0000 Cl  0  0  0  0  0  0  0  0  0  0  0  0
   -0.0997    0.6294    0.0000 C   0  0  0  0  0  0  0  0  0  0  0  0
   -0.8843    0.8843    0.0000 O   0  0  0  0  0  0  0  0  0  0  0  0
  1  2  1  0  0  0  0
  2  3  1  0  0  0  0
  2  4  1  0  0  0  0
  2 10  1  0  0  0  0
  4  5  1  0  0  0  0
  4  6  1  0  0  0  0
  6  7  2  0  0  0  0
  6  8  1  0  0  0  0
  8  9  1  0  0  0  0
  8 10  1  0  0  0  0
 10 11  2  0  0  0  0
M  END
$$$$
potassium sorbate
 OpenBabel03171423152D

  9  7  0  0  0  0  0  0  0  0999 V2000
    0.0000    0.0000    0.0000 K   0  3  0  0  0 15  0  0  0  0  0  0
    5.7161    1.4289    0.0000 C   0  0  0  0  0  0  0  0  0  0  0  0
    5.3036    0.7145    0.0000 C   0  0  0  0  0  0  0  0  0  0  0  0
    4.4786    0.7145    0.0000 C   0  0  0  0  0  0  0  0  0  0  0  0
    4.0661   -0.0000    0.0000 C   0  0  0  0  0  0  0  0  0  0  0  0
    3.2411   -0.0000    0.0000 C   0  0  0  0  0  0  0  0  0  0  0  0
    2.8286   -0.7145    0.0000 C   0  0  0  0  0  0  0  0  0  0  0  0
    3.2411   -1.4289    0.0000 O   0  5  0  0  0  0  0  0  0  0  0  0
    2.0036   -0.7145    0.0000 O   0  0  0  0  0  0  0  0  0  0  0  0
  2  3  1  0  0  0  0
  3  4  2  0  0  0  0
  4  5  1  0  0  0  0
  5  6  2  0  0  0  0
  6  7  1  0  0  0  0
  7  8  1  0  0  0  0
  7  9  2  0  0  0  0
M  CHG  2   1   1   8  -1
M  END
$$$$
Borea
 OpenBabel03171423152D

 14 14  0  0  0  0  0  0  0  0999 V2000
    0.0000    3.3000    0.0000 C   0  0  0  0  0  0  0  0  0  0  0  0
    0.0000    2.4750    0.0000 C   0  0  0  0  0  0  0  0  0  0  0  0
    0.7145    2.0625    0.0000 C   0  0  3  0  0  0  0  0  0  0  0  0
    1.4289    2.4750    0.0000 C   0  0  0  0  0  0  0  0  0  0  0  0
    0.7145    1.2375    0.0000 N   0  0  0  0  0  0  0  0  0  0  0  0
    1.4289    0.8250    0.0000 C   0  0  0  0  0  0  0  0  0  0  0  0
    2.1434    1.2375    0.0000 O   0  0  0  0  0  0  0  0  0  0  0  0
    1.4289   -0.0000    0.0000 N   0  0  0  0  0  0  0  0  0  0  0  0
    0.7145   -0.4125    0.0000 C   0  0  0  0  0  0  0  0  0  0  0  0
    0.7145   -1.2375    0.0000 C   0  0  0  0  0  0  0  0  0  0  0  0
    0.0000    0.0000    0.0000 C   0  0  0  0  0  0  0  0  0  0  0  0
   -0.7145   -0.4125    0.0000 Br  0  0  0  0  0  0  0  0  0  0  0  0
    0.0000    0.8250    0.0000 C   0  0  0  0  0  0  0  0  0  0  0  0
   -0.7145    1.2375    0.0000 O   0  0  0  0  0  0  0  0  0  0  0  0
  1  2  1  0  0  0  0
  2  3  1  0  0  0  0
  3  4  1  0  0  0  0
  3  5  1  0  0  0  0
  5  6  1  0  0  0  0
  5 13  1  0  0  0  0
  6  7  1  0  0  0  0
  6  8  2  0  0  0  0
  8  9  1  0  0  0  0
  9 10  1  0  0  0  0
  9 11  2  0  0  0  0
 11 12  1  0  0  0  0
 11 13  1  0  0  0  0
 13 14  2  0  0  0  0
M  END
>  <type>
common

$$$$
tau-fluvalinate
 OpenBabel03171423152D

 35 37  0  0  1  0  0  0  0  0999 V2000
   -2.1434   -3.9336    0.0000 C   0  0  0  0  0  0  0  0  0  0  0  0
   -2.5559   -4.6480    0.0000 C   0  0  0  0  0  0  0  0  0  0  0  0
   -3.3809   -4.6480    0.0000 C   0  0  0  0  0  0  0  0  0  0  0  0
   -2.1434   -5.3625    0.0000 C   0  0  1  0  0  0  0  0  0  0  0  0
   -2.5559   -6.0770    0.0000 N   0  0  0  0  0  0  0  0  0  0  0  0
   -3.3809   -6.0770    0.0000 C   0  0  0  0  0  0  0  0  0  0  0  0
   -3.7934   -5.3625    0.0000 C   0  0  0  0  0  0  0  0  0  0  0  0
   -4.6184   -5.3625    0.0000 C   0  0  0  0  0  0  0  0  0  0  0  0
   -5.0309   -6.0770    0.0000 C   0  0  0  0  0  0  0  0  0  0  0  0
   -4.6184   -6.7914    0.0000 C   0  0  0  0  0  0  0  0  0  0  0  0
   -3.7934   -6.7914    0.0000 C   0  0  0  0  0  0  0  0  0  0  0  0
   -3.3809   -7.5059    0.0000 Cl  0  0  0  0  0  0  0  0  0  0  0  0
   -5.8559   -6.0770    0.0000 C   0  0  0  0  0  0  0  0  0  0  0  0
   -6.6809   -6.0770    0.0000 F   0  0  0  0  0  0  0  0  0  0  0  0
   -5.8559   -5.2520    0.0000 F   0  0  0  0  0  0  0  0  0  0  0  0
   -5.8559   -6.9020    0.0000 F   0  0  0  0  0  0  0  0  0  0  0  0
   -1.3184   -5.3625    0.0000 C   0  0  0  0  0  0  0  0  0  0  0  0
   -0.9059   -6.0770    0.0000 O   0  0  0  0  0  0  0  0  0  0  0  0
   -0.9059   -4.6480    0.0000 O   0  0  0  0  0  0  0  0  0  0  0  0
   -0.0809   -4.6480    0.0000 C   0  0  3  0  0  0  0  0  0  0  0  0
    0.3316   -5.3625    0.0000 C   0  0  0  0  0  0  0  0  0  0  0  0
    0.7441   -6.0770    0.0000 N   0  0  0  0  0  0  0  0  0  0  0  0
    0.3316   -3.9336    0.0000 C   0  0  0  0  0  0  0  0  0  0  0  0
   -0.0809   -3.2191    0.0000 C   0  0  0  0  0  0  0  0  0  0  0  0
    0.3316   -2.5046    0.0000 C   0  0  0  0  0  0  0  0  0  0  0  0
    1.1566   -2.5046    0.0000 C   0  0  0  0  0  0  0  0  0  0  0  0
    1.5691   -3.2191    0.0000 C   0  0  0  0  0  0  0  0  0  0  0  0
    2.3941   -3.2191    0.0000 O   0  0  0  0  0  0  0  0  0  0  0  0
    2.8066   -2.5046    0.0000 C   0  0  0  0  0  0  0  0  0  0  0  0
    2.3941   -1.7901    0.0000 C   0  0  0  0  0  0  0  0  0  0  0  0
    2.8066   -1.0757    0.0000 C   0  0  0  0  0  0  0  0  0  0  0  0
    3.6316   -1.0757    0.0000 C   0  0  0  0  0  0  0  0  0  0  0  0
    4.0441   -1.7901    0.0000 C   0  0  0  0  0  0  0  0  0  0  0  0
    3.6316   -2.5046    0.0000 C   0  0  0  0  0  0  0  0  0  0  0  0
    1.1566   -3.9336    0.0000 C   0  0  0  0  0  0  0  0  0  0  0  0
  1  2  1  0  0  0  0
  2  3  1  0  0  0  0
  4  2  1  6  0  0  0
  4  5  1  0  0  0  0
  4 17  1  0  0  0  0
  5  6  1  0  0  0  0
  6  7  2  0  0  0  0
  6 11  1  0  0  0  0
  7  8  1  0  0  0  0
  8  9  2  0  0  0  0
  9 10  1  0  0  0  0
  9 13  1  0  0  0  0
 10 11  2  0  0  0  0
 11 12  1  0  0  0  0
 13 14  1  0  0  0  0
 13 15  1  0  0  0  0
 13 16  1  0  0  0  0
 17 18  2  0  0  0  0
 17 19  1  0  0  0  0
 19 20  1  0  0  0  0
 20 21  1  0  0  0  0
 20 23  1  0  0  0  0
 21 22  3  0  0  0  0
 23 24  2  0  0  0  0
 23 35  1  0  0  0  0
 24 25  1  0  0  0  0
 25 26  2  0  0  0  0
 26 27  1  0  0  0  0
 27 28  1  0  0  0  0
 27 35  2  0  0  0  0
 28 29  1  0  0  0  0
 29 30  2  0  0  0  0
 29 34  1  0  0  0  0
 30 31  1  0  0  0  0
 31 32  2  0  0  0  0
 32 33  1  0  0  0  0
 33 34  2  0  0  0  0
M  END
>  <type>
common

$$$$
imidazolidine-2,4-dione
 OpenBabel03171423152D

  7  7  0  0  0  0  0  0  0  0999 V2000
    0.5678    1.9393    0.0000 O   0  0  0  0  0  0  0  0  0  0  0  0
    0.5678    1.1143    0.0000 C   0  0  0  0  0  0  0  0  0  0  0  0
    1.2352    0.6294    0.0000 C   0  0  0  0  0  0  0  0  0  0  0  0
    0.9803   -0.1553    0.0000 N   0  0  0  0  0  0  0  0  0  0  0  0
    0.1553   -0.1553    0.0000 C   0  0  0  0  0  0  0  0  0  0  0  0
   -0.3297   -0.8227    0.0000 O   0  0  0  0  0  0  0  0  0  0  0  0
   -0.0997    0.6294    0.0000 N   0  0  0  0  0  0  0  0  0  0  0  0
  1  2  2  0  0  0  0
  2  3  1  0  0  0  0
  2  7  1  0  0  0  0
  3  4  1  0  0  0  0
  4  5  1  0  0  0  0
  5  6  2  0  0  0  0
  5  7  1  0  0  0  0
M  END
$$$$
hexaflumuron
 OpenBabel03171423152D

 29 30  0  0  0  0  0  0  0  0999 V2000
   -4.2868   -1.6500    0.0000 F   0  0  0  0  0  0  0  0  0  0  0  0
   -3.5724   -2.0625    0.0000 C   0  0  0  0  0  0  0  0  0  0  0  0
   -3.5724   -2.8875    0.0000 F   0  0  0  0  0  0  0  0  0  0  0  0
   -2.8579   -1.6500    0.0000 C   0  0  0  0  0  0  0  0  0  0  0  0
   -2.4454   -2.3645    0.0000 F   0  0  0  0  0  0  0  0  0  0  0  0
   -3.2704   -0.9355    0.0000 F   0  0  0  0  0  0  0  0  0  0  0  0
   -2.1434   -1.2375    0.0000 O   0  0  0  0  0  0  0  0  0  0  0  0
   -1.4289   -1.6500    0.0000 C   0  0  0  0  0  0  0  0  0  0  0  0
   -0.7145   -1.2375    0.0000 C   0  0  0  0  0  0  0  0  0  0  0  0
   -0.7145   -0.4125    0.0000 Cl  0  0  0  0  0  0  0  0  0  0  0  0
    0.0000   -1.6500    0.0000 C   0  0  0  0  0  0  0  0  0  0  0  0
    0.0000   -2.4750    0.0000 C   0  0  0  0  0  0  0  0  0  0  0  0
    0.7145   -2.8875    0.0000 N   0  0  0  0  0  0  0  0  0  0  0  0
    1.4289   -2.4750    0.0000 C   0  0  0  0  0  0  0  0  0  0  0  0
    1.4289   -1.6500    0.0000 O   0  0  0  0  0  0  0  0  0  0  0  0
    2.1434   -2.8875    0.0000 N   0  0  0  0  0  0  0  0  0  0  0  0
    2.8579   -2.4750    0.0000 C   0  0  0  0  0  0  0  0  0  0  0  0
    2.8579   -1.6500    0.0000 O   0  0  0  0  0  0  0  0  0  0  0  0
    3.5724   -2.8875    0.0000 C   0  0  0  0  0  0  0  0  0  0  0  0
    4.2868   -2.4750    0.0000 C   0  0  0  0  0  0  0  0  0  0  0  0
    4.2868   -1.6500    0.0000 F   0  0  0  0  0  0  0  0  0  0  0  0
    5.0013   -2.8875    0.0000 C   0  0  0  0  0  0  0  0  0  0  0  0
    5.0013   -3.7125    0.0000 C   0  0  0  0  0  0  0  0  0  0  0  0
    4.2868   -4.1250    0.0000 C   0  0  0  0  0  0  0  0  0  0  0  0
    3.5724   -3.7125    0.0000 C   0  0  0  0  0  0  0  0  0  0  0  0
    2.8579   -4.1250    0.0000 F   0  0  0  0  0  0  0  0  0  0  0  0
   -0.7145   -2.8875    0.0000 C   0  0  0  0  0  0  0  0  0  0  0  0
   -1.4289   -2.4750    0.0000 C   0  0  0  0  0  0  0  0  0  0  0  0
   -2.1434   -2.8875    0.0000 Cl  0  0  0  0  0  0  0  0  0  0  0  0
  1  2  1  0  0  0  0
  2  3  1  0  0  0  0
  2  4  1  0  0  0  0
  4  5  1  0  0  0  0
  4  6  1  0  0  0  0
  4  7  1  0  0  0  0
  7  8  1  0  0  0  0
  8  9  2  0  0  0  0
  8 28  1  0  0  0  0
  9 10  1  0  0  0  0
  9 11  1  0  0  0  0
 11 12  2  0  0  0  0
 12 13  1  0  0  0  0
 12 27  1  0  0  0  0
 13 14  1  0  0  0  0
 14 15  2  0  0  0  0
 14 16  1  0  0  0  0
 16 17  1  0  0  0  0
 17 18  2  0  0  0  0
 17 19  1  0  0  0  0
 19 20  2  0  0  0  0
 19 25  1  0  0  0  0
 20 21  1  0  0  0  0
 20 22  1  0  0  0  0
 22 23  2  0  0  0  0
 23 24  1  0  0  0  0
 24 25  2  0  0  0  0
 25 26  1  0  0  0  0
 27 28  2  0  0  0  0
 28 29  1  0  0  0  0
M  END
$$$$
myclobutanil
 OpenBabel03171423152D

 20 21  0  0  0  0  0  0  0  0999 V2000
   -0.8866   -0.6204    0.0000 C   0  0  0  0  0  0  0  0  0  0  0  0
   -0.0616   -0.6204    0.0000 C   0  0  0  0  0  0  0  0  0  0  0  0
    0.3509   -1.3349    0.0000 C   0  0  0  0  0  0  0  0  0  0  0  0
    1.1759   -1.3349    0.0000 C   0  0  0  0  0  0  0  0  0  0  0  0
    1.5884   -0.6204    0.0000 C   0  0  3  0  0  0  0  0  0  0  0  0
    2.3029   -1.0329    0.0000 C   0  0  0  0  0  0  0  0  0  0  0  0
    2.3029   -1.8579    0.0000 N   0  0  0  0  0  0  0  0  0  0  0  0
    1.6354   -2.3429    0.0000 C   0  0  0  0  0  0  0  0  0  0  0  0
    1.8904   -3.1275    0.0000 N   0  0  0  0  0  0  0  0  0  0  0  0
    2.7154   -3.1275    0.0000 C   0  0  0  0  0  0  0  0  0  0  0  0
    2.9703   -2.3429    0.0000 N   0  0  0  0  0  0  0  0  0  0  0  0
    0.8739   -0.2079    0.0000 C   0  0  0  0  0  0  0  0  0  0  0  0
    0.1595    0.2046    0.0000 N   0  0  0  0  0  0  0  0  0  0  0  0
    2.0009    0.0940    0.0000 C   0  0  0  0  0  0  0  0  0  0  0  0
    1.5884    0.8085    0.0000 C   0  0  0  0  0  0  0  0  0  0  0  0
    2.0009    1.5230    0.0000 C   0  0  0  0  0  0  0  0  0  0  0  0
    2.8259    1.5230    0.0000 C   0  0  0  0  0  0  0  0  0  0  0  0
    3.2384    2.2374    0.0000 Cl  0  0  0  0  0  0  0  0  0  0  0  0
    3.2384    0.8085    0.0000 C   0  0  0  0  0  0  0  0  0  0  0  0
    2.8259    0.0940    0.0000 C   0  0  0  0  0  0  0  0  0  0  0  0
  1  2  1  0  0  0  0
  2  3  1  0  0  0  0
  3  4  1  0  0  0  0
  4  5  1  0  0  0  0
  5  6  1  0  0  0  0
  5 12  1  0  0  0  0
  5 14  1  0  0  0  0
  6  7  1  0  0  0  0
  7  8  1  0  0  0  0
  7 11  1  0  0  0  0
  8  9  2  0  0  0  0
  9 10  1  0  0  0  0
 10 11  2  0  0  0  0
 12 13  3  0  0  0  0
 14 15  2  0  0  0  0
 14 20  1  0  0  0  0
 15 16  1  0  0  0  0
 16 17  2  0  0  0  0
 17 18  1  0  0  0  0
 17 19  1  0  0  0  0
 19 20  2  0  0  0  0
M  END
>  <type>
common

$$$$
Betula
 OpenBabel03171423152D

 11 11  0  0  0  0  0  0  0  0999 V2000
    0.0000    3.3000    0.0000 C   0  0  0  0  0  0  0  0  0  0  0  0
    0.0000    2.4750    0.0000 O   0  0  0  0  0  0  0  0  0  0  0  0
    0.7145    2.0625    0.0000 C   0  0  0  0  0  0  0  0  0  0  0  0
    1.4289    2.4750    0.0000 O   0  0  0  0  0  0  0  0  0  0  0  0
    0.7145    1.2375    0.0000 C   0  0  0  0  0  0  0  0  0  0  0  0
    1.4289    0.8250    0.0000 C   0  0  0  0  0  0  0  0  0  0  0  0
    2.1434    1.2375    0.0000 O   0  0  0  0  0  0  0  0  0  0  0  0
    1.4289   -0.0000    0.0000 C   0  0  0  0  0  0  0  0  0  0  0  0
    0.7145   -0.4125    0.0000 C   0  0  0  0  0  0  0  0  0  0  0  0
    0.0000    0.0000    0.0000 C   0  0  0  0  0  0  0  0  0  0  0  0
    0.0000    0.8250    0.0000 C   0  0  0  0  0  0  0  0  0  0  0  0
  1  2  1  0  0  0  0
  2  3  1  0  0  0  0
  3  4  2  0  0  0  0
  3  5  1  0  0  0  0
  5  6  2  0  0  0  0
  5 11  1  0  0  0  0
  6  7  1  0  0  0  0
  6  8  1  0  0  0  0
  8  9  2  0  0  0  0
  9 10  1  0  0  0  0
 10 11  2  0  0  0  0
M  END
$$$$
Thymol
 OpenBabel03171423152D

 11 11  0  0  0  0  0  0  0  0999 V2000
    0.0000    2.4750    0.0000 C   0  0  0  0  0  0  0  0  0  0  0  0
    0.7145    2.0625    0.0000 C   0  0  0  0  0  0  0  0  0  0  0  0
    1.4289    2.4750    0.0000 C   0  0  0  0  0  0  0  0  0  0  0  0
    0.7145    1.2375    0.0000 C   0  0  0  0  0  0  0  0  0  0  0  0
    1.4289    0.8250    0.0000 C   0  0  0  0  0  0  0  0  0  0  0  0
    2.1434    1.2375    0.0000 O   0  0  0  0  0  0  0  0  0  0  0  0
    1.4289   -0.0000    0.0000 C   0  0  0  0  0  0  0  0  0  0  0  0
    0.7145   -0.4125    0.0000 C   0  0  0  0  0  0  0  0  0  0  0  0
    0.7145   -1.2375    0.0000 C   0  0  0  0  0  0  0  0  0  0  0  0
    0.0000    0.0000    0.0000 C   0  0  0  0  0  0  0  0  0  0  0  0
    0.0000    0.8250    0.0000 C   0  0  0  0  0  0  0  0  0  0  0  0
  1  2  1  0  0  0  0
  2  3  1  0  0  0  0
  2  4  1  0  0  0  0
  4  5  2  0  0  0  0
  4 11  1  0  0  0  0
  5  6  1  0  0  0  0
  5  7  1  0  0  0  0
  7  8  2  0  0  0  0
  8  9  1  0  0  0  0
  8 10  1  0  0  0  0
 10 11  2  0  0  0  0
M  END
$$$$
cycloate
 OpenBabel03171423152D

 14 14  0  0  0  0  0  0  0  0999 V2000
    1.7309   -2.1730    0.0000 C   0  0  0  0  0  0  0  0  0  0  0  0
    2.1434   -2.8875    0.0000 C   0  0  0  0  0  0  0  0  0  0  0  0
    2.9684   -2.8875    0.0000 S   0  0  0  0  0  0  0  0  0  0  0  0
    3.3809   -3.6020    0.0000 C   0  0  0  0  0  0  0  0  0  0  0  0
    2.9684   -4.3164    0.0000 O   0  0  0  0  0  0  0  0  0  0  0  0
    4.2059   -3.6020    0.0000 N   0  0  0  0  0  0  0  0  0  0  0  0
    4.6184   -2.8875    0.0000 C   0  0  0  0  0  0  0  0  0  0  0  0
    5.4434   -2.8875    0.0000 C   0  0  0  0  0  0  0  0  0  0  0  0
    4.6184   -4.3164    0.0000 C   0  0  0  0  0  0  0  0  0  0  0  0
    5.4434   -4.3164    0.0000 C   0  0  0  0  0  0  0  0  0  0  0  0
    5.8559   -5.0309    0.0000 C   0  0  0  0  0  0  0  0  0  0  0  0
    5.4434   -5.7454    0.0000 C   0  0  0  0  0  0  0  0  0  0  0  0
    4.6184   -5.7454    0.0000 C   0  0  0  0  0  0  0  0  0  0  0  0
    4.2059   -5.0309    0.0000 C   0  0  0  0  0  0  0  0  0  0  0  0
  1  2  1  0  0  0  0
  2  3  1  0  0  0  0
  3  4  1  0  0  0  0
  4  5  2  0  0  0  0
  4  6  1  0  0  0  0
  6  7  1  0  0  0  0
  6  9  1  0  0  0  0
  7  8  1  0  0  0  0
  9 10  1  0  0  0  0
  9 14  1  0  0  0  0
 10 11  1  0  0  0  0
 11 12  1  0  0  0  0
 12 13  1  0  0  0  0
 13 14  1  0  0  0  0
M  END
$$$$
ancymidol
 OpenBabel03171423152D

 19 21  0  0  0  0  0  0  0  0999 V2000
    3.1257    0.7783    0.0000 C   0  0  0  0  0  0  0  0  0  0  0  0
    2.7132    0.0638    0.0000 O   0  0  0  0  0  0  0  0  0  0  0  0
    1.8882    0.0638    0.0000 C   0  0  0  0  0  0  0  0  0  0  0  0
    1.4757   -0.6507    0.0000 C   0  0  0  0  0  0  0  0  0  0  0  0
    0.6507   -0.6507    0.0000 C   0  0  0  0  0  0  0  0  0  0  0  0
    0.2382    0.0638    0.0000 C   0  0  0  0  0  0  0  0  0  0  0  0
    0.6507    0.7783    0.0000 C   0  0  0  0  0  0  0  0  0  0  0  0
    1.4757    0.7783    0.0000 C   0  0  0  0  0  0  0  0  0  0  0  0
   -0.5868    0.0638    0.0000 C   0  0  3  0  0  0  0  0  0  0  0  0
   -0.5868    0.8888    0.0000 O   0  0  0  0  0  0  0  0  0  0  0  0
   -0.5868   -0.7612    0.0000 C   0  0  0  0  0  0  0  0  0  0  0  0
   -0.1743   -1.4757    0.0000 C   0  0  0  0  0  0  0  0  0  0  0  0
   -0.9993   -1.4757    0.0000 C   0  0  0  0  0  0  0  0  0  0  0  0
   -1.4118    0.0638    0.0000 C   0  0  0  0  0  0  0  0  0  0  0  0
   -1.8243   -0.6507    0.0000 C   0  0  0  0  0  0  0  0  0  0  0  0
   -2.6493   -0.6507    0.0000 N   0  0  0  0  0  0  0  0  0  0  0  0
   -3.0618    0.0638    0.0000 C   0  0  0  0  0  0  0  0  0  0  0  0
   -2.6493    0.7783    0.0000 N   0  0  0  0  0  0  0  0  0  0  0  0
   -1.8243    0.7783    0.0000 C   0  0  0  0  0  0  0  0  0  0  0  0
  1  2  1  0  0  0  0
  2  3  1  0  0  0  0
  3  4  2  0  0  0  0
  3  8  1  0  0  0  0
  4  5  1  0  0  0  0
  5  6  2  0  0  0  0
  6  7  1  0  0  0  0
  6  9  1  0  0  0  0
  7  8  2  0  0  0  0
  9 10  1  0  0  0  0
  9 11  1  0  0  0  0
  9 14  1  0  0  0  0
 11 12  1  0  0  0  0
 11 13  1  0  0  0  0
 12 13  1  0  0  0  0
 14 15  2  0  0  0  0
 14 19  1  0  0  0  0
 15 16  1  0  0  0  0
 16 17  2  0  0  0  0
 17 18  1  0  0  0  0
 18 19  2  0  0  0  0
M  END
$$$$
beta-Pinene
 OpenBabel03171423152D

 10 11  0  0  0  0  0  0  0  0999 V2000
    0.4287    0.6435    0.0000 C   0  0  0  0  0  0  0  0  0  0  0  0
    0.1175   -0.1206    0.0000 C   0  0  0  0  0  0  0  0  0  0  0  0
   -0.7027   -0.0314    0.0000 C   0  0  0  0  0  0  0  0  0  0  0  0
    0.6768   -0.5594    0.0000 C   0  0  3  0  0  0  0  0  0  0  0  0
    0.1762   -1.6279    0.0000 C   0  0  0  0  0  0  0  0  0  0  0  0
    0.2569   -0.9317    0.0000 C   0  0  3  0  0  0  0  0  0  0  0  0
    1.2262   -0.9317    0.0000 C   0  0  0  0  0  0  0  0  0  0  0  0
    0.9460   -1.7077    0.0000 C   0  0  0  0  0  0  0  0  0  0  0  0
    1.7412   -1.3594    0.0000 C   0  0  0  0  0  0  0  0  0  0  0  0
    1.6033   -0.5439    0.0000 C   0  0  0  0  0  0  0  0  0  0  0  0
  1  2  1  0  0  0  0
  2  3  1  0  0  0  0
  2  4  1  0  0  0  0
  2  6  1  0  0  0  0
  4  5  1  0  0  0  0
  4 10  1  0  0  0  0
  5  6  1  0  0  0  0
  6  7  1  0  0  0  0
  7  8  2  0  0  0  0
  7  9  1  0  0  0  0
  9 10  1  0  0  0  0
M  END
$$$$
Cypermethrin
 OpenBabel03171423152D

 28 30  0  0  0  0  0  0  0  0999 V2000
    0.5432   -2.6053    0.0000 C   0  0  0  0  0  0  0  0  0  0  0  0
    1.3184   -2.8875    0.0000 C   0  0  0  0  0  0  0  0  0  0  0  0
    1.1752   -3.7000    0.0000 C   0  0  0  0  0  0  0  0  0  0  0  0
    1.7309   -2.1730    0.0000 C   0  0  3  0  0  0  0  0  0  0  0  0
    1.7309   -1.3480    0.0000 C   0  0  0  0  0  0  0  0  0  0  0  0
    2.4454   -0.9355    0.0000 C   0  0  0  0  0  0  0  0  0  0  0  0
    2.4454   -0.1105    0.0000 Cl  0  0  0  0  0  0  0  0  0  0  0  0
    3.1599   -1.3480    0.0000 Cl  0  0  0  0  0  0  0  0  0  0  0  0
    2.1434   -2.8875    0.0000 C   0  0  3  0  0  0  0  0  0  0  0  0
    2.8579   -3.3000    0.0000 C   0  0  0  0  0  0  0  0  0  0  0  0
    3.5724   -2.8875    0.0000 O   0  0  0  0  0  0  0  0  0  0  0  0
    2.8579   -4.1250    0.0000 O   0  0  0  0  0  0  0  0  0  0  0  0
    3.5724   -4.5375    0.0000 C   0  0  3  0  0  0  0  0  0  0  0  0
    4.2868   -4.1250    0.0000 C   0  0  0  0  0  0  0  0  0  0  0  0
    5.0013   -3.7125    0.0000 N   0  0  0  0  0  0  0  0  0  0  0  0
    3.5724   -5.3625    0.0000 C   0  0  0  0  0  0  0  0  0  0  0  0
    4.2868   -5.7750    0.0000 C   0  0  0  0  0  0  0  0  0  0  0  0
    4.2868   -6.6000    0.0000 C   0  0  0  0  0  0  0  0  0  0  0  0
    5.0013   -7.0125    0.0000 O   0  0  0  0  0  0  0  0  0  0  0  0
    5.0013   -7.8375    0.0000 C   0  0  0  0  0  0  0  0  0  0  0  0
    5.7158   -8.2500    0.0000 C   0  0  0  0  0  0  0  0  0  0  0  0
    5.7158   -9.0750    0.0000 C   0  0  0  0  0  0  0  0  0  0  0  0
    5.0013   -9.4875    0.0000 C   0  0  0  0  0  0  0  0  0  0  0  0
    4.2868   -9.0750    0.0000 C   0  0  0  0  0  0  0  0  0  0  0  0
    4.2868   -8.2500    0.0000 C   0  0  0  0  0  0  0  0  0  0  0  0
    3.5724   -7.0125    0.0000 C   0  0  0  0  0  0  0  0  0  0  0  0
    2.8579   -6.6000    0.0000 C   0  0  0  0  0  0  0  0  0  0  0  0
    2.8579   -5.7750    0.0000 C   0  0  0  0  0  0  0  0  0  0  0  0
  1  2  1  0  0  0  0
  2  3  1  0  0  0  0
  2  4  1  0  0  0  0
  2  9  1  0  0  0  0
  4  5  1  0  0  0  0
  4  9  1  0  0  0  0
  5  6  2  0  0  0  0
  6  7  1  0  0  0  0
  6  8  1  0  0  0  0
  9 10  1  0  0  0  0
 10 11  2  0  0  0  0
 10 12  1  0  0  0  0
 12 13  1  0  0  0  0
 13 14  1  0  0  0  0
 13 16  1  0  0  0  0
 14 15  3  0  0  0  0
 16 17  2  0  0  0  0
 16 28  1  0  0  0  0
 17 18  1  0  0  0  0
 18 19  1  0  0  0  0
 18 26  2  0  0  0  0
 19 20  1  0  0  0  0
 20 21  2  0  0  0  0
 20 25  1  0  0  0  0
 21 22  1  0  0  0  0
 22 23  2  0  0  0  0
 23 24  1  0  0  0  0
 24 25  2  0  0  0  0
 26 27  1  0  0  0  0
 27 28  2  0  0  0  0
M  END
$$$$
InChI=1S/C12H11Cl2NO/c1-4-12(2,3)15-11(16)8-5-9(13)7-10(14)6-8/h1,5-7H,2-3H3,(H,15,16)
 OpenBabel03171423152D

 16 16  0  0  0  0  0  0  0  0999 V2000
    1.4289    4.9500    0.0000 C   0  0  0  0  0  0  0  0  0  0  0  0
    0.6039    3.3000    0.0000 C   0  0  0  0  0  0  0  0  0  0  0  0
    2.2539    3.3000    0.0000 C   0  0  0  0  0  0  0  0  0  0  0  0
    1.4289    4.1250    0.0000 C   0  0  0  0  0  0  0  0  0  0  0  0
    1.4289    0.8250    0.0000 C   0  0  0  0  0  0  0  0  0  0  0  0
    0.0000    0.8250    0.0000 C   0  0  0  0  0  0  0  0  0  0  0  0
    0.7145   -0.4125    0.0000 C   0  0  0  0  0  0  0  0  0  0  0  0
    0.7145    1.2375    0.0000 C   0  0  0  0  0  0  0  0  0  0  0  0
    1.4289   -0.0000    0.0000 C   0  0  0  0  0  0  0  0  0  0  0  0
    0.0000    0.0000    0.0000 C   0  0  0  0  0  0  0  0  0  0  0  0
    0.7145    2.0625    0.0000 C   0  0  0  0  0  0  0  0  0  0  0  0
    1.4289    3.3000    0.0000 C   0  0  0  0  0  0  0  0  0  0  0  0
    2.1434   -0.4125    0.0000 Cl  0  0  0  0  0  0  0  0  0  0  0  0
   -0.7145   -0.4125    0.0000 Cl  0  0  0  0  0  0  0  0  0  0  0  0
    1.4289    2.4750    0.0000 N   0  0  0  0  0  0  0  0  0  0  0  0
    0.0000    2.4750    0.0000 O   0  0  0  0  0  0  0  0  0  0  0  0
  4  1  3  0  0  0  0
  8  5  2  0  0  0  0
  8  6  1  0  0  0  0
  9  5  1  0  0  0  0
  9  7  2  0  0  0  0
 10  6  2  0  0  0  0
 10  7  1  0  0  0  0
 11  8  1  0  0  0  0
 12  2  1  0  0  0  0
 12  3  1  0  0  0  0
 12  4  1  0  0  0  0
 13  9  1  0  0  0  0
 14 10  1  0  0  0  0
 15 11  2  3  0  0  0
 15 12  1  0  0  0  0
 16 11  1  0  0  0  0
M  END
$$$$
1,3-dibromo-5,5-dimethyl-2,4-imidazolidinedione
 OpenBabel03171423152D

 11 11  0  0  0  0  0  0  0  0999 V2000
    1.1198    1.7274    0.0000 C   0  0  0  0  0  0  0  0  0  0  0  0
    0.5678    1.1143    0.0000 C   0  0  0  0  0  0  0  0  0  0  0  0
    0.0157    1.7274    0.0000 C   0  0  0  0  0  0  0  0  0  0  0  0
    1.2352    0.6294    0.0000 N   0  0  0  0  0  0  0  0  0  0  0  0
    2.0198    0.8843    0.0000 Br  0  0  0  0  0  0  0  0  0  0  0  0
    0.9803   -0.1553    0.0000 C   0  0  0  0  0  0  0  0  0  0  0  0
    1.4652   -0.8227    0.0000 O   0  0  0  0  0  0  0  0  0  0  0  0
    0.1553   -0.1553    0.0000 N   0  0  0  0  0  0  0  0  0  0  0  0
   -0.3297   -0.8227    0.0000 Br  0  0  0  0  0  0  0  0  0  0  0  0
   -0.0997    0.6294    0.0000 C   0  0  0  0  0  0  0  0  0  0  0  0
   -0.8843    0.8843    0.0000 O   0  0  0  0  0  0  0  0  0  0  0  0
  1  2  1  0  0  0  0
  2  3  1  0  0  0  0
  2  4  1  0  0  0  0
  2 10  1  0  0  0  0
  4  5  1  0  0  0  0
  4  6  1  0  0  0  0
  6  7  2  0  0  0  0
  6  8  1  0  0  0  0
  8  9  1  0  0  0  0
  8 10  1  0  0  0  0
 10 11  2  0  0  0  0
M  END
$$$$
hydrocarbon
 OpenBabel03171423152D

  1  0  0  0  0  0  0  0  0  0999 V2000
    0.0000    0.0000    0.0000 C   0  0  0  0  0  0  0  0  0  0  0  0
M  END
$$$$
Azinphosmethyl
 OpenBabel03171423152D

 19 20  0  0  0  0  0  0  0  0999 V2000
   -2.8579    2.4750    0.0000 C   0  0  0  0  0  0  0  0  0  0  0  0
   -2.8579    1.6500    0.0000 O   0  0  0  0  0  0  0  0  0  0  0  0
   -2.1434    1.2375    0.0000 P   0  0  0  0  0  0  0  0  0  0  0  0
   -2.5559    0.5230    0.0000 S   0  0  0  0  0  0  0  0  0  0  0  0
   -1.7309    1.9520    0.0000 O   0  0  0  0  0  0  0  0  0  0  0  0
   -0.9059    1.9520    0.0000 C   0  0  0  0  0  0  0  0  0  0  0  0
   -1.4289    0.8250    0.0000 S   0  0  0  0  0  0  0  0  0  0  0  0
   -1.4289    0.0000    0.0000 C   0  0  0  0  0  0  0  0  0  0  0  0
   -0.7145   -0.4125    0.0000 N   0  0  0  0  0  0  0  0  0  0  0  0
   -0.7145   -1.2375    0.0000 N   0  0  0  0  0  0  0  0  0  0  0  0
    0.0000   -1.6500    0.0000 N   0  0  0  0  0  0  0  0  0  0  0  0
    0.7145   -1.2375    0.0000 C   0  0  0  0  0  0  0  0  0  0  0  0
    0.7145   -0.4125    0.0000 C   0  0  0  0  0  0  0  0  0  0  0  0
    1.4289   -0.0000    0.0000 C   0  0  0  0  0  0  0  0  0  0  0  0
    2.1434   -0.4125    0.0000 C   0  0  0  0  0  0  0  0  0  0  0  0
    2.1434   -1.2375    0.0000 C   0  0  0  0  0  0  0  0  0  0  0  0
    1.4289   -1.6500    0.0000 C   0  0  0  0  0  0  0  0  0  0  0  0
    0.0000   -0.0000    0.0000 C   0  0  0  0  0  0  0  0  0  0  0  0
    0.0000    0.8250    0.0000 O   0  0  0  0  0  0  0  0  0  0  0  0
  1  2  1  0  0  0  0
  2  3  1  0  0  0  0
  3  4  2  0  0  0  0
  3  5  1  0  0  0  0
  3  7  1  0  0  0  0
  5  6  1  0  0  0  0
  7  8  1  0  0  0  0
  8  9  1  0  0  0  0
  9 10  1  0  0  0  0
  9 18  1  0  0  0  0
 10 11  2  0  0  0  0
 11 12  1  0  0  0  0
 12 13  2  0  0  0  0
 12 17  1  0  0  0  0
 13 14  1  0  0  0  0
 13 18  1  0  0  0  0
 14 15  2  0  0  0  0
 15 16  1  0  0  0  0
 16 17  2  0  0  0  0
 18 19  2  0  0  0  0
M  END
$$$$
EDTA
 OpenBabel03171423152D

 20 19  0  0  0  0  0  0  0  0999 V2000
    5.0627    1.0005    0.0000 O   0  0  0  0  0  0  0  0  0  0  0  0
    5.8729    1.1565    0.0000 C   0  0  0  0  0  0  0  0  0  0  0  0
    6.1429    1.9360    0.0000 O   0  0  0  0  0  0  0  0  0  0  0  0
    6.4129    0.5328    0.0000 C   0  0  0  0  0  0  0  0  0  0  0  0
    6.1429   -0.2467    0.0000 N   0  0  0  0  0  0  0  0  0  0  0  0
    5.3328   -0.4027    0.0000 C   0  0  0  0  0  0  0  0  0  0  0  0
    5.0627   -1.1822    0.0000 C   0  0  0  0  0  0  0  0  0  0  0  0
    4.2526   -1.3381    0.0000 N   0  0  0  0  0  0  0  0  0  0  0  0
    3.9825   -2.1177    0.0000 C   0  0  0  0  0  0  0  0  0  0  0  0
    4.5226   -2.7413    0.0000 C   0  0  0  0  0  0  0  0  0  0  0  0
    5.3328   -2.5854    0.0000 O   0  0  0  0  0  0  0  0  0  0  0  0
    4.2526   -3.5209    0.0000 O   0  0  0  0  0  0  0  0  0  0  0  0
    3.7125   -0.7145    0.0000 C   0  0  0  0  0  0  0  0  0  0  0  0
    2.9024   -0.8704    0.0000 C   0  0  0  0  0  0  0  0  0  0  0  0
    2.3623   -0.2467    0.0000 O   0  0  0  0  0  0  0  0  0  0  0  0
    2.6323   -1.6499    0.0000 O   0  0  0  0  0  0  0  0  0  0  0  0
    6.6830   -0.8704    0.0000 C   0  0  0  0  0  0  0  0  0  0  0  0
    7.4931   -0.7145    0.0000 C   0  0  0  0  0  0  0  0  0  0  0  0
    7.7632    0.0651    0.0000 O   0  0  0  0  0  0  0  0  0  0  0  0
    8.0332   -1.3381    0.0000 O   0  0  0  0  0  0  0  0  0  0  0  0
  1  2  1  0  0  0  0
  2  3  2  0  0  0  0
  2  4  1  0  0  0  0
  4  5  1  0  0  0  0
  5  6  1  0  0  0  0
  5 17  1  0  0  0  0
  6  7  1  0  0  0  0
  7  8  1  0  0  0  0
  8  9  1  0  0  0  0
  8 13  1  0  0  0  0
  9 10  1  0  0  0  0
 10 11  1  0  0  0  0
 10 12  2  0  0  0  0
 13 14  1  0  0  0  0
 14 15  1  0  0  0  0
 14 16  2  0  0  0  0
 17 18  1  0  0  0  0
 18 19  1  0  0  0  0
 18 20  2  0  0  0  0
M  END
$$$$
Phenolate Sodium (Sodium
 OpenBabel03171423152D

  9  7  0  0  0  0  0  0  0  0999 V2000
    0.0000    0.0000    0.0000 Na  0  3  0  0  0 15  0  0  0  0  0  0
    1.0018    0.0000    0.0000 Na  0  3  0  0  0 15  0  0  0  0  0  0
    0.0000   -1.6500    0.0000 O   0  5  0  0  0  0  0  0  0  0  0  0
    0.0000   -2.4750    0.0000 C   0  0  0  0  0  0  0  0  0  0  0  0
    0.7145   -2.8875    0.0000 C   0  0  0  0  0  0  0  0  0  0  0  0
    0.7145   -3.7125    0.0000 C   0  0  0  0  0  0  0  0  0  0  0  0
   -0.0000   -4.1250    0.0000 C   0  0  0  0  0  0  0  0  0  0  0  0
   -0.7145   -3.7125    0.0000 C   0  0  0  0  0  0  0  0  0  0  0  0
   -0.7145   -2.8875    0.0000 C   0  0  0  0  0  0  0  0  0  0  0  0
  3  4  1  0  0  0  0
  4  5  2  0  0  0  0
  4  9  1  0  0  0  0
  5  6  1  0  0  0  0
  6  7  2  0  0  0  0
  7  8  1  0  0  0  0
  8  9  2  0  0  0  0
M  CHG  3   1   1   2   1   3  -1
M  END
$$$$
dimethylbenzylammonium salt
 OpenBabel03171423152D

 10 10  0  0  0  0  0  0  0  0999 V2000
    0.0000    3.3000    0.0000 C   0  0  0  0  0  0  0  0  0  0  0  0
    0.0000    2.4750    0.0000 N   0  3  0  0  0  0  0  0  0  0  0  0
   -0.7145    2.0625    0.0000 C   0  0  0  0  0  0  0  0  0  0  0  0
    0.7145    2.0625    0.0000 C   0  0  0  0  0  0  0  0  0  0  0  0
    0.7145    1.2375    0.0000 C   0  0  0  0  0  0  0  0  0  0  0  0
    1.4289    0.8250    0.0000 C   0  0  0  0  0  0  0  0  0  0  0  0
    1.4289   -0.0000    0.0000 C   0  0  0  0  0  0  0  0  0  0  0  0
    0.7145   -0.4125    0.0000 C   0  0  0  0  0  0  0  0  0  0  0  0
    0.0000    0.0000    0.0000 C   0  0  0  0  0  0  0  0  0  0  0  0
    0.0000    0.8250    0.0000 C   0  0  0  0  0  0  0  0  0  0  0  0
  1  2  1  0  0  0  0
  2  3  1  0  0  0  0
  2  4  1  0  0  0  0
  4  5  1  0  0  0  0
  5  6  2  0  0  0  0
  5 10  1  0  0  0  0
  6  7  1  0  0  0  0
  7  8  2  0  0  0  0
  8  9  1  0  0  0  0
  9 10  2  0  0  0  0
M  CHG  1   2   1
M  END
$$$$
ethoxy sulfate
 OpenBabel03171423152D

  8  6  0  0  0  0  0  0  0  0999 V2000
   -0.7145    0.1375    0.0000 C   0  0  0  0  0  0  0  0  0  0  0  0
    0.0000   -0.2750    0.0000 C   0  0  0  0  0  0  0  0  0  0  0  0
    0.7145    0.1375    0.0000 O   0  0  0  0  0  0  0  0  0  0  0  0
    3.5430   -0.8250    0.0000 O   0  5  0  0  0  0  0  0  0  0  0  0
    3.5430    0.0000    0.0000 S   0  0  0  0  0  0  0  0  0  0  0  0
    3.5430    0.8250    0.0000 O   0  5  0  0  0  0  0  0  0  0  0  0
    4.3680   -0.0000    0.0000 O   0  0  0  0  0  0  0  0  0  0  0  0
    2.7180    0.0000    0.0000 O   0  0  0  0  0  0  0  0  0  0  0  0
  1  2  1  0  0  0  0
  2  3  1  0  0  0  0
  4  5  1  0  0  0  0
  5  6  1  0  0  0  0
  5  7  2  0  0  0  0
  5  8  2  0  0  0  0
M  CHG  2   4  -1   6  -1
M  END
$$$$
bispyribac-sodium
 OpenBabel03171423152D

 32 34  0  0  0  0  0  0  0  0999 V2000
    4.2868   -2.4750    0.0000 C   0  0  0  0  0  0  0  0  0  0  0  0
    3.5724   -2.8875    0.0000 O   0  0  0  0  0  0  0  0  0  0  0  0
    3.5724   -3.7125    0.0000 C   0  0  0  0  0  0  0  0  0  0  0  0
    4.2868   -4.1250    0.0000 C   0  0  0  0  0  0  0  0  0  0  0  0
    4.2868   -4.9500    0.0000 C   0  0  0  0  0  0  0  0  0  0  0  0
    5.0013   -5.3625    0.0000 O   0  0  0  0  0  0  0  0  0  0  0  0
    5.0013   -6.1875    0.0000 C   0  0  0  0  0  0  0  0  0  0  0  0
    3.5724   -5.3625    0.0000 N   0  0  0  0  0  0  0  0  0  0  0  0
    2.8579   -4.9500    0.0000 C   0  0  0  0  0  0  0  0  0  0  0  0
    2.1434   -5.3625    0.0000 O   0  0  0  0  0  0  0  0  0  0  0  0
    1.4289   -4.9500    0.0000 C   0  0  0  0  0  0  0  0  0  0  0  0
    1.4289   -4.1250    0.0000 C   0  0  0  0  0  0  0  0  0  0  0  0
    0.7145   -3.7125    0.0000 C   0  0  0  0  0  0  0  0  0  0  0  0
    0.0000   -4.1250    0.0000 C   0  0  0  0  0  0  0  0  0  0  0  0
    0.0000   -4.9500    0.0000 C   0  0  0  0  0  0  0  0  0  0  0  0
   -0.7145   -5.3625    0.0000 O   0  0  0  0  0  0  0  0  0  0  0  0
   -1.4289   -4.9500    0.0000 C   0  0  0  0  0  0  0  0  0  0  0  0
   -2.1434   -5.3625    0.0000 N   0  0  0  0  0  0  0  0  0  0  0  0
   -2.8579   -4.9500    0.0000 C   0  0  0  0  0  0  0  0  0  0  0  0
   -3.5724   -5.3625    0.0000 O   0  0  0  0  0  0  0  0  0  0  0  0
   -3.5724   -6.1875    0.0000 C   0  0  0  0  0  0  0  0  0  0  0  0
   -2.8579   -4.1250    0.0000 C   0  0  0  0  0  0  0  0  0  0  0  0
   -2.1434   -3.7125    0.0000 C   0  0  0  0  0  0  0  0  0  0  0  0
   -2.1434   -2.8875    0.0000 O   0  0  0  0  0  0  0  0  0  0  0  0
   -1.4289   -2.4750    0.0000 C   0  0  0  0  0  0  0  0  0  0  0  0
   -1.4289   -4.1250    0.0000 N   0  0  0  0  0  0  0  0  0  0  0  0
    0.7145   -5.3625    0.0000 C   0  0  0  0  0  0  0  0  0  0  0  0
    0.7145   -6.1875    0.0000 C   0  0  0  0  0  0  0  0  0  0  0  0
   -0.0000   -6.6000    0.0000 O   0  0  0  0  0  0  0  0  0  0  0  0
    1.4289   -6.6000    0.0000 O   0  0  0  0  0  0  0  0  0  0  0  0
    2.1434   -6.1875    0.0000 Na  0  0  0  0  0  0  0  0  0  0  0  0
    2.8579   -4.1250    0.0000 N   0  0  0  0  0  0  0  0  0  0  0  0
  1  2  1  0  0  0  0
  2  3  1  0  0  0  0
  3  4  2  0  0  0  0
  3 32  1  0  0  0  0
  4  5  1  0  0  0  0
  5  6  1  0  0  0  0
  5  8  2  0  0  0  0
  6  7  1  0  0  0  0
  8  9  1  0  0  0  0
  9 10  1  0  0  0  0
  9 32  2  0  0  0  0
 10 11  1  0  0  0  0
 11 12  2  0  0  0  0
 11 27  1  0  0  0  0
 12 13  1  0  0  0  0
 13 14  2  0  0  0  0
 14 15  1  0  0  0  0
 15 16  1  0  0  0  0
 15 27  2  0  0  0  0
 16 17  1  0  0  0  0
 17 18  2  0  0  0  0
 17 26  1  0  0  0  0
 18 19  1  0  0  0  0
 19 20  1  0  0  0  0
 19 22  2  0  0  0  0
 20 21  1  0  0  0  0
 22 23  1  0  0  0  0
 23 24  1  0  0  0  0
 23 26  2  0  0  0  0
 24 25  1  0  0  0  0
 27 28  1  0  0  0  0
 28 29  2  0  0  0  0
 28 30  1  0  0  0  0
 30 31  1  0  0  0  0
M  END
$$$$
3-(2,2-Dichloroethenyl)-2,2-dimethylcyclopropanecarboxylic acid (3-phenoxyphenyl)methyl ester
 OpenBabel03171423152D

 26 28  0  0  0  0  0  0  0  0999 V2000
    4.6168   -4.5940    0.0000 C   0  0  0  0  0  0  0  0  0  0  0  0
    3.9849   -5.1243    0.0000 C   0  0  0  0  0  0  0  0  0  0  0  0
    3.3529   -4.5940    0.0000 C   0  0  0  0  0  0  0  0  0  0  0  0
    4.3974   -5.8388    0.0000 C   0  0  3  0  0  0  0  0  0  0  0  0
    5.1118   -6.2513    0.0000 C   0  0  0  0  0  0  0  0  0  0  0  0
    5.1118   -7.0763    0.0000 C   0  0  0  0  0  0  0  0  0  0  0  0
    5.8263   -7.4888    0.0000 Cl  0  0  0  0  0  0  0  0  0  0  0  0
    4.3974   -7.4888    0.0000 Cl  0  0  0  0  0  0  0  0  0  0  0  0
    3.5724   -5.8388    0.0000 C   0  0  3  0  0  0  0  0  0  0  0  0
    2.8579   -6.2513    0.0000 C   0  0  0  0  0  0  0  0  0  0  0  0
    2.8579   -7.0763    0.0000 O   0  0  0  0  0  0  0  0  0  0  0  0
    2.1434   -5.8388    0.0000 O   0  0  0  0  0  0  0  0  0  0  0  0
    1.4289   -6.2513    0.0000 C   0  0  0  0  0  0  0  0  0  0  0  0
    0.7145   -5.8388    0.0000 C   0  0  0  0  0  0  0  0  0  0  0  0
    0.0000   -6.2513    0.0000 C   0  0  0  0  0  0  0  0  0  0  0  0
   -0.7145   -5.8388    0.0000 C   0  0  0  0  0  0  0  0  0  0  0  0
   -1.4289   -6.2513    0.0000 O   0  0  0  0  0  0  0  0  0  0  0  0
   -2.1434   -5.8388    0.0000 C   0  0  0  0  0  0  0  0  0  0  0  0
   -2.8579   -6.2513    0.0000 C   0  0  0  0  0  0  0  0  0  0  0  0
   -3.5724   -5.8388    0.0000 C   0  0  0  0  0  0  0  0  0  0  0  0
   -3.5724   -5.0138    0.0000 C   0  0  0  0  0  0  0  0  0  0  0  0
   -2.8579   -4.6013    0.0000 C   0  0  0  0  0  0  0  0  0  0  0  0
   -2.1434   -5.0138    0.0000 C   0  0  0  0  0  0  0  0  0  0  0  0
   -0.7145   -5.0138    0.0000 C   0  0  0  0  0  0  0  0  0  0  0  0
    0.0000   -4.6013    0.0000 C   0  0  0  0  0  0  0  0  0  0  0  0
    0.7145   -5.0138    0.0000 C   0  0  0  0  0  0  0  0  0  0  0  0
  1  2  1  0  0  0  0
  2  3  1  0  0  0  0
  2  4  1  0  0  0  0
  2  9  1  0  0  0  0
  4  5  1  0  0  0  0
  4  9  1  0  0  0  0
  5  6  2  0  0  0  0
  6  7  1  0  0  0  0
  6  8  1  0  0  0  0
  9 10  1  0  0  0  0
 10 11  2  0  0  0  0
 10 12  1  0  0  0  0
 12 13  1  0  0  0  0
 13 14  1  0  0  0  0
 14 15  2  0  0  0  0
 14 26  1  0  0  0  0
 15 16  1  0  0  0  0
 16 17  1  0  0  0  0
 16 24  2  0  0  0  0
 17 18  1  0  0  0  0
 18 19  2  0  0  0  0
 18 23  1  0  0  0  0
 19 20  1  0  0  0  0
 20 21  2  0  0  0  0
 21 22  1  0  0  0  0
 22 23  2  0  0  0  0
 24 25  1  0  0  0  0
 25 26  2  0  0  0  0
M  END
$$$$
dihydrogensulphate
 OpenBabel03171423152D

  7  4  0  0  0  0  0  0  0  0999 V2000
    0.0000    0.0000    0.0000 H   0  3  0  0  0  0  0  0  0  0  0  0
    0.8839    0.0000    0.0000 H   0  3  0  0  0  0  0  0  0  0  0  0
    0.0000   -3.3000    0.0000 O   0  5  0  0  0  0  0  0  0  0  0  0
    0.0000   -2.4750    0.0000 S   0  0  0  0  0  0  0  0  0  0  0  0
    0.0000   -1.6500    0.0000 O   0  5  0  0  0  0  0  0  0  0  0  0
    0.8250   -2.4750    0.0000 O   0  0  0  0  0  0  0  0  0  0  0  0
   -0.8250   -2.4750    0.0000 O   0  0  0  0  0  0  0  0  0  0  0  0
  3  4  1  0  0  0  0
  4  5  1  0  0  0  0
  4  6  2  0  0  0  0
  4  7  2  0  0  0  0
M  CHG  4   1   1   2   1   3  -1   5  -1
M  END
$$$$
thiodicarb
 OpenBabel03171423152D

 19 18  0  0  0  0  0  0  0  0999 V2000
    2.2836    4.6184    0.0000 C   0  0  0  0  0  0  0  0  0  0  0  0
    2.2836    3.7934    0.0000 S   0  0  0  0  0  0  0  0  0  0  0  0
    2.9980    3.3809    0.0000 C   0  0  0  0  0  0  0  0  0  0  0  0
    3.7125    3.7934    0.0000 C   0  0  0  0  0  0  0  0  0  0  0  0
    2.9980    2.5559    0.0000 N   0  0  0  0  0  0  0  0  0  0  0  0
    3.7125    2.1434    0.0000 O   0  0  0  0  0  0  0  0  0  0  0  0
    4.4270    2.5559    0.0000 C   0  0  0  0  0  0  0  0  0  0  0  0
    4.4270    3.3809    0.0000 O   0  0  0  0  0  0  0  0  0  0  0  0
    5.1414    2.1434    0.0000 N   0  0  0  0  0  0  0  0  0  0  0  0
    5.8559    2.5559    0.0000 S   0  0  0  0  0  0  0  0  0  0  0  0
    6.5704    2.1434    0.0000 N   0  0  0  0  0  0  0  0  0  0  0  0
    7.2849    2.5559    0.0000 C   0  0  0  0  0  0  0  0  0  0  0  0
    7.2849    3.3809    0.0000 O   0  0  0  0  0  0  0  0  0  0  0  0
    7.9993    2.1434    0.0000 O   0  0  0  0  0  0  0  0  0  0  0  0
    8.7138    2.5559    0.0000 N   0  0  0  0  0  0  0  0  0  0  0  0
    9.4283    2.1434    0.0000 C   0  0  0  0  0  0  0  0  0  0  0  0
    9.4283    1.3184    0.0000 C   0  0  0  0  0  0  0  0  0  0  0  0
   10.1427    2.5559    0.0000 S   0  0  0  0  0  0  0  0  0  0  0  0
   10.8572    2.1434    0.0000 C   0  0  0  0  0  0  0  0  0  0  0  0
  1  2  1  0  0  0  0
  2  3  1  0  0  0  0
  3  4  1  0  0  0  0
  3  5  2  3  0  0  0
  5  6  1  0  0  0  0
  6  7  1  0  0  0  0
  7  8  2  0  0  0  0
  7  9  1  0  0  0  0
  9 10  1  0  0  0  0
 10 11  1  0  0  0  0
 11 12  1  0  0  0  0
 12 13  2  0  0  0  0
 12 14  1  0  0  0  0
 14 15  1  0  0  0  0
 15 16  2  3  0  0  0
 16 17  1  0  0  0  0
 16 18  1  0  0  0  0
 18 19  1  0  0  0  0
M  END
$$$$
triclosan
 OpenBabel03171423152D

 17 18  0  0  0  0  0  0  0  0999 V2000
   -0.7145   -0.4125    0.0000 O   0  0  0  0  0  0  0  0  0  0  0  0
   -0.7145   -1.2375    0.0000 C   0  0  0  0  0  0  0  0  0  0  0  0
   -1.4289   -1.6500    0.0000 C   0  0  0  0  0  0  0  0  0  0  0  0
   -2.1434   -1.2375    0.0000 O   0  0  0  0  0  0  0  0  0  0  0  0
   -2.8579   -1.6500    0.0000 C   0  0  0  0  0  0  0  0  0  0  0  0
   -2.8579   -2.4750    0.0000 C   0  0  0  0  0  0  0  0  0  0  0  0
   -2.1434   -2.8875    0.0000 Cl  0  0  0  0  0  0  0  0  0  0  0  0
   -3.5724   -2.8875    0.0000 C   0  0  0  0  0  0  0  0  0  0  0  0
   -4.2868   -2.4750    0.0000 C   0  0  0  0  0  0  0  0  0  0  0  0
   -5.0013   -2.8875    0.0000 Cl  0  0  0  0  0  0  0  0  0  0  0  0
   -4.2868   -1.6500    0.0000 C   0  0  0  0  0  0  0  0  0  0  0  0
   -3.5724   -1.2375    0.0000 C   0  0  0  0  0  0  0  0  0  0  0  0
   -1.4289   -2.4750    0.0000 C   0  0  0  0  0  0  0  0  0  0  0  0
   -0.7145   -2.8875    0.0000 C   0  0  0  0  0  0  0  0  0  0  0  0
    0.0000   -2.4750    0.0000 C   0  0  0  0  0  0  0  0  0  0  0  0
    0.7145   -2.8875    0.0000 Cl  0  0  0  0  0  0  0  0  0  0  0  0
    0.0000   -1.6500    0.0000 C   0  0  0  0  0  0  0  0  0  0  0  0
  1  2  1  0  0  0  0
  2  3  2  0  0  0  0
  2 17  1  0  0  0  0
  3  4  1  0  0  0  0
  3 13  1  0  0  0  0
  4  5  1  0  0  0  0
  5  6  2  0  0  0  0
  5 12  1  0  0  0  0
  6  7  1  0  0  0  0
  6  8  1  0  0  0  0
  8  9  2  0  0  0  0
  9 10  1  0  0  0  0
  9 11  1  0  0  0  0
 11 12  2  0  0  0  0
 13 14  2  0  0  0  0
 14 15  1  0  0  0  0
 15 16  1  0  0  0  0
 15 17  2  0  0  0  0
M  END
$$$$
nabam
 OpenBabel03171423152D

 12  9  0  0  0  0  0  0  0  0999 V2000
    0.0000    0.0000    0.0000 Na  0  3  0  0  0 15  0  0  0  0  0  0
    1.0018    0.0000    0.0000 Na  0  3  0  0  0 15  0  0  0  0  0  0
   -2.5006   -2.8875    0.0000 S   0  5  0  0  0  0  0  0  0  0  0  0
   -1.7862   -2.4750    0.0000 C   0  0  0  0  0  0  0  0  0  0  0  0
   -1.7862   -1.6500    0.0000 S   0  0  0  0  0  0  0  0  0  0  0  0
   -1.0717   -2.8875    0.0000 N   0  0  0  0  0  0  0  0  0  0  0  0
   -0.3572   -2.4750    0.0000 C   0  0  0  0  0  0  0  0  0  0  0  0
    0.3572   -2.8875    0.0000 C   0  0  0  0  0  0  0  0  0  0  0  0
    1.0717   -2.4750    0.0000 N   0  0  0  0  0  0  0  0  0  0  0  0
    1.7862   -2.8875    0.0000 C   0  0  0  0  0  0  0  0  0  0  0  0
    2.5006   -2.4750    0.0000 S   0  5  0  0  0  0  0  0  0  0  0  0
    1.7862   -3.7125    0.0000 S   0  0  0  0  0  0  0  0  0  0  0  0
  3  4  1  0  0  0  0
  4  5  2  0  0  0  0
  4  6  1  0  0  0  0
  6  7  1  0  0  0  0
  7  8  1  0  0  0  0
  8  9  1  0  0  0  0
  9 10  1  0  0  0  0
 10 11  1  0  0  0  0
 10 12  2  0  0  0  0
M  CHG  4   1   1   2   1   3  -1  11  -1
M  END
$$$$
4-nonylphenol
 OpenBabel03171423152D

 16 16  0  0  0  0  0  0  0  0999 V2000
    1.4289   -4.9500    0.0000 C   0  0  0  0  0  0  0  0  0  0  0  0
    2.1434   -5.3625    0.0000 C   0  0  0  0  0  0  0  0  0  0  0  0
    2.8579   -4.9500    0.0000 C   0  0  0  0  0  0  0  0  0  0  0  0
    3.5724   -5.3625    0.0000 C   0  0  0  0  0  0  0  0  0  0  0  0
    4.2868   -4.9500    0.0000 C   0  0  0  0  0  0  0  0  0  0  0  0
    5.0013   -5.3625    0.0000 C   0  0  0  0  0  0  0  0  0  0  0  0
    5.7158   -4.9500    0.0000 C   0  0  0  0  0  0  0  0  0  0  0  0
    6.4302   -5.3625    0.0000 C   0  0  0  0  0  0  0  0  0  0  0  0
    7.1447   -4.9500    0.0000 C   0  0  0  0  0  0  0  0  0  0  0  0
    7.8592   -5.3625    0.0000 C   0  0  0  0  0  0  0  0  0  0  0  0
    8.5737   -4.9500    0.0000 C   0  0  0  0  0  0  0  0  0  0  0  0
    9.2881   -5.3625    0.0000 C   0  0  0  0  0  0  0  0  0  0  0  0
    9.2881   -6.1875    0.0000 C   0  0  0  0  0  0  0  0  0  0  0  0
   10.0026   -6.6000    0.0000 O   0  0  0  0  0  0  0  0  0  0  0  0
    8.5737   -6.6000    0.0000 C   0  0  0  0  0  0  0  0  0  0  0  0
    7.8592   -6.1875    0.0000 C   0  0  0  0  0  0  0  0  0  0  0  0
  1  2  1  0  0  0  0
  2  3  1  0  0  0  0
  3  4  1  0  0  0  0
  4  5  1  0  0  0  0
  5  6  1  0  0  0  0
  6  7  1  0  0  0  0
  7  8  1  0  0  0  0
  8  9  1  0  0  0  0
  9 10  1  0  0  0  0
 10 11  2  0  0  0  0
 10 16  1  0  0  0  0
 11 12  1  0  0  0  0
 12 13  2  0  0  0  0
 13 14  1  0  0  0  0
 13 15  1  0  0  0  0
 15 16  2  0  0  0  0
M  END
$$$$
dodine
 OpenBabel03171423152D

 20 18  0  0  0  0  0  0  0  0999 V2000
    0.4125    0.7145    0.0000 C   0  0  0  0  0  0  0  0  0  0  0  0
    0.0000   -0.0000    0.0000 C   0  0  0  0  0  0  0  0  0  0  0  0
    0.4125   -0.7145    0.0000 O   0  5  0  0  0  0  0  0  0  0  0  0
   -0.8250   -0.0000    0.0000 O   0  0  0  0  0  0  0  0  0  0  0  0
    2.6518    0.2578    0.0000 C   0  0  0  0  0  0  0  0  0  0  0  0
    3.3663   -0.1547    0.0000 C   0  0  0  0  0  0  0  0  0  0  0  0
    4.0807    0.2578    0.0000 C   0  0  0  0  0  0  0  0  0  0  0  0
    4.7952   -0.1547    0.0000 C   0  0  0  0  0  0  0  0  0  0  0  0
    5.5097    0.2578    0.0000 C   0  0  0  0  0  0  0  0  0  0  0  0
    6.2241   -0.1547    0.0000 C   0  0  0  0  0  0  0  0  0  0  0  0
    6.9386    0.2578    0.0000 C   0  0  0  0  0  0  0  0  0  0  0  0
    7.6531   -0.1547    0.0000 C   0  0  0  0  0  0  0  0  0  0  0  0
    8.3676    0.2578    0.0000 C   0  0  0  0  0  0  0  0  0  0  0  0
    9.0820   -0.1547    0.0000 C   0  0  0  0  0  0  0  0  0  0  0  0
    9.7965    0.2578    0.0000 C   0  0  0  0  0  0  0  0  0  0  0  0
   10.5110   -0.1547    0.0000 C   0  0  0  0  0  0  0  0  0  0  0  0
   11.2254    0.2578    0.0000 N   0  0  0  0  0  0  0  0  0  0  0  0
   11.9399   -0.1547    0.0000 C   0  0  0  0  0  0  0  0  0  0  0  0
   12.6544    0.2578    0.0000 N   0  3  0  0  0  0  0  0  0  0  0  0
   11.9399   -0.9797    0.0000 N   0  0  0  0  0  0  0  0  0  0  0  0
  1  2  1  0  0  0  0
  2  3  1  0  0  0  0
  2  4  2  0  0  0  0
  5  6  1  0  0  0  0
  6  7  1  0  0  0  0
  7  8  1  0  0  0  0
  8  9  1  0  0  0  0
  9 10  1  0  0  0  0
 10 11  1  0  0  0  0
 11 12  1  0  0  0  0
 12 13  1  0  0  0  0
 13 14  1  0  0  0  0
 14 15  1  0  0  0  0
 15 16  1  0  0  0  0
 16 17  1  0  0  0  0
 17 18  1  0  0  0  0
 18 19  1  0  0  0  0
 18 20  2  0  0  0  0
M  CHG  2   3  -1  19   1
M  END
$$$$
Apollo
 OpenBabel03171423152D

 20 22  0  0  0  0  0  0  0  0999 V2000
    0.7145   -2.8875    0.0000 Cl  0  0  0  0  0  0  0  0  0  0  0  0
    0.7145   -3.7125    0.0000 C   0  0  0  0  0  0  0  0  0  0  0  0
    1.4289   -4.1250    0.0000 C   0  0  0  0  0  0  0  0  0  0  0  0
    1.4289   -4.9500    0.0000 C   0  0  0  0  0  0  0  0  0  0  0  0
    0.7145   -5.3625    0.0000 C   0  0  0  0  0  0  0  0  0  0  0  0
    0.0000   -4.9500    0.0000 C   0  0  0  0  0  0  0  0  0  0  0  0
    0.0000   -4.1250    0.0000 C   0  0  0  0  0  0  0  0  0  0  0  0
   -0.7145   -3.7125    0.0000 C   0  0  0  0  0  0  0  0  0  0  0  0
   -1.4289   -4.1250    0.0000 N   0  0  0  0  0  0  0  0  0  0  0  0
   -2.1434   -3.7125    0.0000 N   0  0  0  0  0  0  0  0  0  0  0  0
   -2.1434   -2.8875    0.0000 C   0  0  0  0  0  0  0  0  0  0  0  0
   -1.4289   -2.4750    0.0000 N   0  0  0  0  0  0  0  0  0  0  0  0
   -0.7145   -2.8875    0.0000 N   0  0  0  0  0  0  0  0  0  0  0  0
   -2.8579   -2.4750    0.0000 C   0  0  0  0  0  0  0  0  0  0  0  0
   -3.5724   -2.8875    0.0000 C   0  0  0  0  0  0  0  0  0  0  0  0
   -3.5724   -3.7125    0.0000 Cl  0  0  0  0  0  0  0  0  0  0  0  0
   -4.2868   -2.4750    0.0000 C   0  0  0  0  0  0  0  0  0  0  0  0
   -4.2868   -1.6500    0.0000 C   0  0  0  0  0  0  0  0  0  0  0  0
   -3.5724   -1.2375    0.0000 C   0  0  0  0  0  0  0  0  0  0  0  0
   -2.8579   -1.6500    0.0000 C   0  0  0  0  0  0  0  0  0  0  0  0
  1  2  1  0  0  0  0
  2  3  2  0  0  0  0
  2  7  1  0  0  0  0
  3  4  1  0  0  0  0
  4  5  2  0  0  0  0
  5  6  1  0  0  0  0
  6  7  2  0  0  0  0
  7  8  1  0  0  0  0
  8  9  2  0  0  0  0
  8 13  1  0  0  0  0
  9 10  1  0  0  0  0
 10 11  2  0  0  0  0
 11 12  1  0  0  0  0
 11 14  1  0  0  0  0
 12 13  2  0  0  0  0
 14 15  2  0  0  0  0
 14 20  1  0  0  0  0
 15 16  1  0  0  0  0
 15 17  1  0  0  0  0
 17 18  2  0  0  0  0
 18 19  1  0  0  0  0
 19 20  2  0  0  0  0
M  END
$$$$
Polypropylene glycol
 OpenBabel03171423152D

  9  8  0  0  1  0  0  0  0  0999 V2000
    3.1895    1.8414    0.0000 C   0  0  3  0  0  0  0  0  0  0  0  0
    2.4750    1.4289    0.0000 C   0  0  0  0  0  0  0  0  0  0  0  0
    3.9039    1.4289    0.0000 O   0  0  0  0  0  0  0  0  0  0  0  0
    3.1895    2.6664    0.0000 C   0  0  0  0  0  0  0  0  0  0  0  0
    1.7605    1.8414    0.0000 O   0  0  0  0  0  0  0  0  0  0  0  0
    4.6184    1.8414    0.0000 C   0  0  0  0  0  0  0  0  0  0  0  0
    5.3329    1.4289    0.0000 C   0  0  3  0  0  0  0  0  0  0  0  0
    6.0474    1.8414    0.0000 O   0  0  0  0  0  0  0  0  0  0  0  0
    5.3329    0.6039    0.0000 C   0  0  0  0  0  0  0  0  0  0  0  0
  1  2  1  0  0  0  0
  1  3  1  0  0  0  0
  1  4  1  0  0  0  0
  2  5  1  0  0  0  0
  3  6  1  0  0  0  0
  6  7  1  0  0  0  0
  7  8  1  0  0  0  0
  7  9  1  0  0  0  0
M  END
$$$$
fenpropathrin
 OpenBabel03171423152D

 26 28  0  0  0  0  0  0  0  0999 V2000
    2.3629   -1.6427    0.0000 C   0  0  0  0  0  0  0  0  0  0  0  0
    1.7309   -2.1730    0.0000 C   0  0  0  0  0  0  0  0  0  0  0  0
    1.0989   -1.6427    0.0000 C   0  0  0  0  0  0  0  0  0  0  0  0
    2.1434   -2.8875    0.0000 C   0  0  0  0  0  0  0  0  0  0  0  0
    2.8579   -3.3000    0.0000 C   0  0  0  0  0  0  0  0  0  0  0  0
    3.5724   -2.8875    0.0000 O   0  0  0  0  0  0  0  0  0  0  0  0
    2.8579   -4.1250    0.0000 O   0  0  0  0  0  0  0  0  0  0  0  0
    3.5724   -4.5375    0.0000 C   0  0  3  0  0  0  0  0  0  0  0  0
    4.2868   -4.1250    0.0000 C   0  0  0  0  0  0  0  0  0  0  0  0
    5.0013   -3.7125    0.0000 N   0  0  0  0  0  0  0  0  0  0  0  0
    3.5724   -5.3625    0.0000 C   0  0  0  0  0  0  0  0  0  0  0  0
    4.2868   -5.7750    0.0000 C   0  0  0  0  0  0  0  0  0  0  0  0
    4.2868   -6.6000    0.0000 C   0  0  0  0  0  0  0  0  0  0  0  0
    5.0013   -7.0125    0.0000 O   0  0  0  0  0  0  0  0  0  0  0  0
    5.0013   -7.8375    0.0000 C   0  0  0  0  0  0  0  0  0  0  0  0
    5.7158   -8.2500    0.0000 C   0  0  0  0  0  0  0  0  0  0  0  0
    5.7158   -9.0750    0.0000 C   0  0  0  0  0  0  0  0  0  0  0  0
    5.0013   -9.4875    0.0000 C   0  0  0  0  0  0  0  0  0  0  0  0
    4.2868   -9.0750    0.0000 C   0  0  0  0  0  0  0  0  0  0  0  0
    4.2868   -8.2500    0.0000 C   0  0  0  0  0  0  0  0  0  0  0  0
    3.5724   -7.0125    0.0000 C   0  0  0  0  0  0  0  0  0  0  0  0
    2.8579   -6.6000    0.0000 C   0  0  0  0  0  0  0  0  0  0  0  0
    2.8579   -5.7750    0.0000 C   0  0  0  0  0  0  0  0  0  0  0  0
    1.3184   -2.8875    0.0000 C   0  0  0  0  0  0  0  0  0  0  0  0
    0.9698   -3.6352    0.0000 C   0  0  0  0  0  0  0  0  0  0  0  0
    0.4966   -2.8156    0.0000 C   0  0  0  0  0  0  0  0  0  0  0  0
  1  2  1  0  0  0  0
  2  3  1  0  0  0  0
  2  4  1  0  0  0  0
  2 24  1  0  0  0  0
  4  5  1  0  0  0  0
  4 24  1  0  0  0  0
  5  6  2  0  0  0  0
  5  7  1  0  0  0  0
  7  8  1  0  0  0  0
  8  9  1  0  0  0  0
  8 11  1  0  0  0  0
  9 10  3  0  0  0  0
 11 12  2  0  0  0  0
 11 23  1  0  0  0  0
 12 13  1  0  0  0  0
 13 14  1  0  0  0  0
 13 21  2  0  0  0  0
 14 15  1  0  0  0  0
 15 16  2  0  0  0  0
 15 20  1  0  0  0  0
 16 17  1  0  0  0  0
 17 18  2  0  0  0  0
 18 19  1  0  0  0  0
 19 20  2  0  0  0  0
 21 22  1  0  0  0  0
 22 23  2  0  0  0  0
 24 25  1  0  0  0  0
 24 26  1  0  0  0  0
M  END
$$$$
Acetamiprid
 OpenBabel03171423152D

 15 15  0  0  0  0  0  0  0  0999 V2000
    2.1434    2.0625    0.0000 C   0  0  0  0  0  0  0  0  0  0  0  0
    1.4289    2.4750    0.0000 N   0  0  0  0  0  0  0  0  0  0  0  0
    0.7145    2.0625    0.0000 C   0  0  0  0  0  0  0  0  0  0  0  0
    0.7145    1.2375    0.0000 C   0  0  0  0  0  0  0  0  0  0  0  0
    1.4289    0.8250    0.0000 C   0  0  0  0  0  0  0  0  0  0  0  0
    1.4289   -0.0000    0.0000 C   0  0  0  0  0  0  0  0  0  0  0  0
    0.7145   -0.4125    0.0000 C   0  0  0  0  0  0  0  0  0  0  0  0
    0.7145   -1.2375    0.0000 Cl  0  0  0  0  0  0  0  0  0  0  0  0
    0.0000    0.0000    0.0000 N   0  0  0  0  0  0  0  0  0  0  0  0
    0.0000    0.8250    0.0000 C   0  0  0  0  0  0  0  0  0  0  0  0
    1.4289    3.3000    0.0000 C   0  0  0  0  0  0  0  0  0  0  0  0
    0.7145    3.7125    0.0000 C   0  0  0  0  0  0  0  0  0  0  0  0
    2.1434    3.7125    0.0000 N   0  0  0  0  0  0  0  0  0  0  0  0
    2.1434    4.5375    0.0000 C   0  0  0  0  0  0  0  0  0  0  0  0
    2.1434    5.3625    0.0000 N   0  0  0  0  0  0  0  0  0  0  0  0
  1  2  1  0  0  0  0
  2  3  1  0  0  0  0
  2 11  1  0  0  0  0
  3  4  1  0  0  0  0
  4  5  2  0  0  0  0
  4 10  1  0  0  0  0
  5  6  1  0  0  0  0
  6  7  2  0  0  0  0
  7  8  1  0  0  0  0
  7  9  1  0  0  0  0
  9 10  2  0  0  0  0
 11 12  1  0  0  0  0
 11 13  2  0  0  0  0
 13 14  1  0  0  0  0
 14 15  3  0  0  0  0
M  END
$$$$
1-Methylcyclopropene
 OpenBabel03171423152D

  4  4  0  0  0  0  0  0  0  0999 V2000
    0.2382    1.7138    0.0000 C   0  0  0  0  0  0  0  0  0  0  0  0
    0.2382    0.8888    0.0000 C   0  0  0  0  0  0  0  0  0  0  0  0
    0.6507    0.1743    0.0000 C   0  0  0  0  0  0  0  0  0  0  0  0
   -0.1743    0.1743    0.0000 C   0  0  0  0  0  0  0  0  0  0  0  0
  1  2  1  0  0  0  0
  2  3  2  0  0  0  0
  2  4  1  0  0  0  0
  3  4  1  0  0  0  0
M  END
$$$$
Oxydemeton-Methyl
 OpenBabel03171423152D

 13 12  0  0  0  0  0  0  0  0999 V2000
    5.5243    0.7145    0.0000 C   0  0  0  0  0  0  0  0  0  0  0  0
    4.8099    0.3020    0.0000 C   0  0  0  0  0  0  0  0  0  0  0  0
    4.0954    0.7145    0.0000 S   0  0  3  0  0  0  0  0  0  0  0  0
    4.0954    1.5395    0.0000 O   0  0  0  0  0  0  0  0  0  0  0  0
    3.3809    0.3020    0.0000 C   0  0  0  0  0  0  0  0  0  0  0  0
    2.6664    0.7145    0.0000 C   0  0  0  0  0  0  0  0  0  0  0  0
    1.9520    0.3020    0.0000 S   0  0  0  0  0  0  0  0  0  0  0  0
    1.2375    0.7145    0.0000 P   0  0  0  0  0  0  0  0  0  0  0  0
    1.6500    1.4289    0.0000 O   0  0  0  0  0  0  0  0  0  0  0  0
    0.5230    1.1270    0.0000 O   0  0  0  0  0  0  0  0  0  0  0  0
   -0.1914    0.7145    0.0000 C   0  0  0  0  0  0  0  0  0  0  0  0
    0.8250    0.0000    0.0000 O   0  0  0  0  0  0  0  0  0  0  0  0
    0.0000    0.0000    0.0000 C   0  0  0  0  0  0  0  0  0  0  0  0
  1  2  1  0  0  0  0
  2  3  1  0  0  0  0
  3  4  2  0  0  0  0
  3  5  1  0  0  0  0
  5  6  1  0  0  0  0
  6  7  1  0  0  0  0
  7  8  1  0  0  0  0
  8  9  2  0  0  0  0
  8 10  1  0  0  0  0
  8 12  1  0  0  0  0
 10 11  1  0  0  0  0
 12 13  1  0  0  0  0
M  END
$$$$
carboxin
 OpenBabel03171423152D

 16 17  0  0  0  0  0  0  0  0999 V2000
    1.4289   -1.6500    0.0000 C   0  0  0  0  0  0  0  0  0  0  0  0
    1.4289   -2.4750    0.0000 C   0  0  0  0  0  0  0  0  0  0  0  0
    2.1434   -2.8875    0.0000 C   0  0  0  0  0  0  0  0  0  0  0  0
    2.1434   -3.7125    0.0000 S   0  0  0  0  0  0  0  0  0  0  0  0
    1.4289   -4.1250    0.0000 C   0  0  0  0  0  0  0  0  0  0  0  0
    0.7145   -3.7125    0.0000 C   0  0  0  0  0  0  0  0  0  0  0  0
    0.7145   -2.8875    0.0000 O   0  0  0  0  0  0  0  0  0  0  0  0
    2.8579   -2.4750    0.0000 C   0  0  0  0  0  0  0  0  0  0  0  0
    3.5724   -2.8875    0.0000 O   0  0  0  0  0  0  0  0  0  0  0  0
    2.8579   -1.6500    0.0000 N   0  0  0  0  0  0  0  0  0  0  0  0
    3.5724   -1.2375    0.0000 C   0  0  0  0  0  0  0  0  0  0  0  0
    3.5724   -0.4125    0.0000 C   0  0  0  0  0  0  0  0  0  0  0  0
    4.2868   -0.0000    0.0000 C   0  0  0  0  0  0  0  0  0  0  0  0
    5.0013   -0.4125    0.0000 C   0  0  0  0  0  0  0  0  0  0  0  0
    5.0013   -1.2375    0.0000 C   0  0  0  0  0  0  0  0  0  0  0  0
    4.2868   -1.6500    0.0000 C   0  0  0  0  0  0  0  0  0  0  0  0
  1  2  1  0  0  0  0
  2  3  2  0  0  0  0
  2  7  1  0  0  0  0
  3  4  1  0  0  0  0
  3  8  1  0  0  0  0
  4  5  1  0  0  0  0
  5  6  1  0  0  0  0
  6  7  1  0  0  0  0
  8  9  2  0  0  0  0
  8 10  1  0  0  0  0
 10 11  1  0  0  0  0
 11 12  2  0  0  0  0
 11 16  1  0  0  0  0
 12 13  1  0  0  0  0
 13 14  2  0  0  0  0
 14 15  1  0  0  0  0
 15 16  2  0  0  0  0
M  END
$$$$
Methomyl
 OpenBabel03171423152D

 10  9  0  0  0  0  0  0  0  0999 V2000
    3.3000    1.4289    0.0000 C   0  0  0  0  0  0  0  0  0  0  0  0
    2.4750    1.4289    0.0000 N   0  0  0  0  0  0  0  0  0  0  0  0
    2.0625    0.7145    0.0000 C   0  0  0  0  0  0  0  0  0  0  0  0
    2.4750    0.0000    0.0000 O   0  0  0  0  0  0  0  0  0  0  0  0
    1.2375    0.7145    0.0000 O   0  0  0  0  0  0  0  0  0  0  0  0
    0.8250    0.0000    0.0000 N   0  0  0  0  0  0  0  0  0  0  0  0
    0.0000    0.0000    0.0000 C   0  0  0  0  0  0  0  0  0  0  0  0
   -0.4125    0.7145    0.0000 C   0  0  0  0  0  0  0  0  0  0  0  0
   -0.4125   -0.7145    0.0000 S   0  0  0  0  0  0  0  0  0  0  0  0
    0.0000   -1.4289    0.0000 C   0  0  0  0  0  0  0  0  0  0  0  0
  1  2  1  0  0  0  0
  2  3  1  0  0  0  0
  3  4  2  0  0  0  0
  3  5  1  0  0  0  0
  5  6  1  0  0  0  0
  6  7  2  3  0  0  0
  7  8  1  0  0  0  0
  7  9  1  0  0  0  0
  9 10  1  0  0  0  0
M  END
$$$$
5-pentyloxolan-2-one
 OpenBabel03171423152D

 11 11  0  0  0  0  0  0  0  0999 V2000
   -0.6865   -2.4373    0.0000 C   0  0  0  0  0  0  0  0  0  0  0  0
    0.0280   -2.0248    0.0000 C   0  0  0  0  0  0  0  0  0  0  0  0
    0.7425   -2.4373    0.0000 C   0  0  0  0  0  0  0  0  0  0  0  0
    1.4569   -2.0248    0.0000 C   0  0  0  0  0  0  0  0  0  0  0  0
    2.1714   -2.4373    0.0000 C   0  0  0  0  0  0  0  0  0  0  0  0
    2.8859   -2.0248    0.0000 C   0  0  3  0  0  0  0  0  0  0  0  0
    2.9721   -1.2043    0.0000 C   0  0  0  0  0  0  0  0  0  0  0  0
    3.7791   -1.0328    0.0000 C   0  0  0  0  0  0  0  0  0  0  0  0
    4.1916   -1.7472    0.0000 C   0  0  0  0  0  0  0  0  0  0  0  0
    5.0121   -1.8335    0.0000 O   0  0  0  0  0  0  0  0  0  0  0  0
    3.6396   -2.3603    0.0000 O   0  0  0  0  0  0  0  0  0  0  0  0
  1  2  1  0  0  0  0
  2  3  1  0  0  0  0
  3  4  1  0  0  0  0
  4  5  1  0  0  0  0
  5  6  1  0  0  0  0
  6  7  1  0  0  0  0
  6 11  1  0  0  0  0
  7  8  1  0  0  0  0
  8  9  1  0  0  0  0
  9 10  2  0  0  0  0
  9 11  1  0  0  0  0
M  END
$$$$
fludioxonil
 OpenBabel03171423152D

 18 20  0  0  0  0  0  0  0  0999 V2000
   -1.2415   -1.2500    0.0000 F   0  0  0  0  0  0  0  0  0  0  0  0
   -0.6284   -0.6979    0.0000 C   0  0  0  0  0  0  0  0  0  0  0  0
   -1.2415   -0.1459    0.0000 F   0  0  0  0  0  0  0  0  0  0  0  0
   -0.1435   -1.3654    0.0000 O   0  0  0  0  0  0  0  0  0  0  0  0
    0.6411   -1.1104    0.0000 C   0  0  0  0  0  0  0  0  0  0  0  0
    0.6411   -0.2854    0.0000 C   0  0  0  0  0  0  0  0  0  0  0  0
   -0.1435   -0.0305    0.0000 O   0  0  0  0  0  0  0  0  0  0  0  0
    1.3556    0.1271    0.0000 C   0  0  0  0  0  0  0  0  0  0  0  0
    2.0701   -0.2854    0.0000 C   0  0  0  0  0  0  0  0  0  0  0  0
    2.0701   -1.1104    0.0000 C   0  0  0  0  0  0  0  0  0  0  0  0
    1.3556   -1.5229    0.0000 C   0  0  0  0  0  0  0  0  0  0  0  0
    1.3556    0.9521    0.0000 C   0  0  0  0  0  0  0  0  0  0  0  0
    0.6881    1.4370    0.0000 C   0  0  0  0  0  0  0  0  0  0  0  0
    0.9431    2.2216    0.0000 N   0  0  0  0  0  0  0  0  0  0  0  0
    1.7681    2.2216    0.0000 C   0  0  0  0  0  0  0  0  0  0  0  0
    2.0230    1.4370    0.0000 C   0  0  0  0  0  0  0  0  0  0  0  0
    2.8076    1.1820    0.0000 C   0  0  0  0  0  0  0  0  0  0  0  0
    3.5923    0.9271    0.0000 N   0  0  0  0  0  0  0  0  0  0  0  0
  1  2  1  0  0  0  0
  2  3  1  0  0  0  0
  2  4  1  0  0  0  0
  2  7  1  0  0  0  0
  4  5  1  0  0  0  0
  5  6  2  0  0  0  0
  5 11  1  0  0  0  0
  6  7  1  0  0  0  0
  6  8  1  0  0  0  0
  8  9  2  0  0  0  0
  8 12  1  0  0  0  0
  9 10  1  0  0  0  0
 10 11  2  0  0  0  0
 12 13  2  0  0  0  0
 12 16  1  0  0  0  0
 13 14  1  0  0  0  0
 14 15  1  0  0  0  0
 15 16  2  0  0  0  0
 16 17  1  0  0  0  0
 17 18  3  0  0  0  0
M  END
$$$$
cybutryne
 OpenBabel03171423152D

 17 18  0  0  0  0  0  0  0  0999 V2000
    1.7309    2.3007    0.0000 C   0  0  0  0  0  0  0  0  0  0  0  0
    1.0164    1.8882    0.0000 S   0  0  0  0  0  0  0  0  0  0  0  0
    0.3020    2.3007    0.0000 C   0  0  0  0  0  0  0  0  0  0  0  0
   -0.4125    1.8882    0.0000 N   0  0  0  0  0  0  0  0  0  0  0  0
   -1.1270    2.3007    0.0000 C   0  0  0  0  0  0  0  0  0  0  0  0
   -1.8414    1.8882    0.0000 N   0  0  0  0  0  0  0  0  0  0  0  0
   -1.8414    1.0632    0.0000 C   0  0  0  0  0  0  0  0  0  0  0  0
   -1.4289    0.3487    0.0000 C   0  0  0  0  0  0  0  0  0  0  0  0
   -2.2539    0.3487    0.0000 C   0  0  0  0  0  0  0  0  0  0  0  0
   -1.1270    3.1257    0.0000 N   0  0  0  0  0  0  0  0  0  0  0  0
   -0.4125    3.5382    0.0000 C   0  0  0  0  0  0  0  0  0  0  0  0
   -0.4125    4.3632    0.0000 N   0  0  0  0  0  0  0  0  0  0  0  0
   -1.1270    4.7757    0.0000 C   0  0  0  0  0  0  0  0  0  0  0  0
   -1.8414    5.1882    0.0000 C   0  0  0  0  0  0  0  0  0  0  0  0
   -0.7145    5.4901    0.0000 C   0  0  0  0  0  0  0  0  0  0  0  0
   -1.5395    4.0612    0.0000 C   0  0  0  0  0  0  0  0  0  0  0  0
    0.3020    3.1257    0.0000 N   0  0  0  0  0  0  0  0  0  0  0  0
  1  2  1  0  0  0  0
  2  3  1  0  0  0  0
  3  4  2  0  0  0  0
  3 17  1  0  0  0  0
  4  5  1  0  0  0  0
  5  6  1  0  0  0  0
  5 10  2  0  0  0  0
  6  7  1  0  0  0  0
  7  8  1  0  0  0  0
  7  9  1  0  0  0  0
  8  9  1  0  0  0  0
 10 11  1  0  0  0  0
 11 12  1  0  0  0  0
 11 17  2  0  0  0  0
 12 13  1  0  0  0  0
 13 14  1  0  0  0  0
 13 15  1  0  0  0  0
 13 16  1  0  0  0  0
M  END
$$$$
pelargonic acid (nonanoic acid)
 OpenBabel03171423152D

 21 20  0  0  0  0  0  0  0  0999 V2000
    9.1855    6.1283    0.0000 C   0  0  0  0  0  0  0  0  0  0  0  0
    9.9000    5.7158    0.0000 C   0  0  0  0  0  0  0  0  0  0  0  0
   10.6145    6.1283    0.0000 C   0  0  0  0  0  0  0  0  0  0  0  0
   11.3289    5.7158    0.0000 C   0  0  0  0  0  0  0  0  0  0  0  0
   12.0434    6.1283    0.0000 C   0  0  0  0  0  0  0  0  0  0  0  0
   12.7579    5.7158    0.0000 C   0  0  0  0  0  0  0  0  0  0  0  0
   13.4724    6.1283    0.0000 C   0  0  0  0  0  0  0  0  0  0  0  0
   14.1868    5.7158    0.0000 C   0  0  0  0  0  0  0  0  0  0  0  0
   14.9013    6.1283    0.0000 C   0  0  0  0  0  0  0  0  0  0  0  0
   14.9013    6.9533    0.0000 O   0  0  0  0  0  0  0  0  0  0  0  0
   15.6158    5.7158    0.0000 O   0  0  0  0  0  0  0  0  0  0  0  0
   16.3302    6.1283    0.0000 C   0  0  0  0  0  0  0  0  0  0  0  0
   16.3302    6.9533    0.0000 O   0  0  0  0  0  0  0  0  0  0  0  0
   17.0447    5.7158    0.0000 C   0  0  0  0  0  0  0  0  0  0  0  0
   17.7592    6.1283    0.0000 C   0  0  0  0  0  0  0  0  0  0  0  0
   18.4737    5.7158    0.0000 C   0  0  0  0  0  0  0  0  0  0  0  0
   19.1881    6.1283    0.0000 C   0  0  0  0  0  0  0  0  0  0  0  0
   19.9026    5.7158    0.0000 C   0  0  0  0  0  0  0  0  0  0  0  0
   20.6171    6.1283    0.0000 C   0  0  0  0  0  0  0  0  0  0  0  0
   21.3315    5.7158    0.0000 C   0  0  0  0  0  0  0  0  0  0  0  0
   22.0460    6.1283    0.0000 C   0  0  0  0  0  0  0  0  0  0  0  0
  1  2  1  0  0  0  0
  2  3  1  0  0  0  0
  3  4  1  0  0  0  0
  4  5  1  0  0  0  0
  5  6  1  0  0  0  0
  6  7  1  0  0  0  0
  7  8  1  0  0  0  0
  8  9  1  0  0  0  0
  9 10  2  0  0  0  0
  9 11  1  0  0  0  0
 11 12  1  0  0  0  0
 12 13  2  0  0  0  0
 12 14  1  0  0  0  0
 14 15  1  0  0  0  0
 15 16  1  0  0  0  0
 16 17  1  0  0  0  0
 17 18  1  0  0  0  0
 18 19  1  0  0  0  0
 19 20  1  0  0  0  0
 20 21  1  0  0  0  0
M  END
$$$$
Zyban
 OpenBabel03171423152D

 22 22  0  0  0  0  0  0  0  0999 V2000
   -5.0013   -0.4125    0.0000 C   0  0  0  0  0  0  0  0  0  0  0  0
   -4.2868   -0.0000    0.0000 O   0  0  0  0  0  0  0  0  0  0  0  0
   -3.5724   -0.4125    0.0000 C   0  0  0  0  0  0  0  0  0  0  0  0
   -3.5724   -1.2375    0.0000 O   0  0  0  0  0  0  0  0  0  0  0  0
   -2.8579   -0.0000    0.0000 N   0  0  0  0  0  0  0  0  0  0  0  0
   -2.1434   -0.4125    0.0000 C   0  0  0  0  0  0  0  0  0  0  0  0
   -1.4289   -0.0000    0.0000 S   0  0  0  0  0  0  0  0  0  0  0  0
   -2.1434   -1.2375    0.0000 N   0  0  0  0  0  0  0  0  0  0  0  0
   -1.4289   -1.6500    0.0000 C   0  0  0  0  0  0  0  0  0  0  0  0
   -0.7145   -1.2375    0.0000 C   0  0  0  0  0  0  0  0  0  0  0  0
   -0.7145   -0.4125    0.0000 N   0  0  0  0  0  0  0  0  0  0  0  0
    0.0000    0.0000    0.0000 C   0  0  0  0  0  0  0  0  0  0  0  0
   -0.0000    0.8250    0.0000 S   0  0  0  0  0  0  0  0  0  0  0  0
    0.7145   -0.4125    0.0000 N   0  0  0  0  0  0  0  0  0  0  0  0
    1.4289    0.0000    0.0000 C   0  0  0  0  0  0  0  0  0  0  0  0
    1.4289    0.8250    0.0000 O   0  0  0  0  0  0  0  0  0  0  0  0
    2.1434   -0.4125    0.0000 O   0  0  0  0  0  0  0  0  0  0  0  0
    2.8579   -0.0000    0.0000 C   0  0  0  0  0  0  0  0  0  0  0  0
    0.0000   -1.6500    0.0000 C   0  0  0  0  0  0  0  0  0  0  0  0
    0.0000   -2.4750    0.0000 C   0  0  0  0  0  0  0  0  0  0  0  0
   -0.7145   -2.8875    0.0000 C   0  0  0  0  0  0  0  0  0  0  0  0
   -1.4289   -2.4750    0.0000 C   0  0  0  0  0  0  0  0  0  0  0  0
  1  2  1  0  0  0  0
  2  3  1  0  0  0  0
  3  4  2  0  0  0  0
  3  5  1  0  0  0  0
  5  6  1  0  0  0  0
  6  7  2  0  0  0  0
  6  8  1  0  0  0  0
  8  9  1  0  0  0  0
  9 10  2  0  0  0  0
  9 22  1  0  0  0  0
 10 11  1  0  0  0  0
 10 19  1  0  0  0  0
 11 12  1  0  0  0  0
 12 13  2  0  0  0  0
 12 14  1  0  0  0  0
 14 15  1  0  0  0  0
 15 16  2  0  0  0  0
 15 17  1  0  0  0  0
 17 18  1  0  0  0  0
 19 20  2  0  0  0  0
 20 21  1  0  0  0  0
 21 22  2  0  0  0  0
M  END
$$$$
Fenamiphos
 OpenBabel03171423152D

 19 19  0  0  0  0  0  0  0  0999 V2000
   -1.4289    4.1250    0.0000 C   0  0  0  0  0  0  0  0  0  0  0  0
   -0.7145    3.7125    0.0000 C   0  0  0  0  0  0  0  0  0  0  0  0
   -0.7145    2.8875    0.0000 O   0  0  0  0  0  0  0  0  0  0  0  0
    0.0000    2.4750    0.0000 P   0  0  3  0  0  0  0  0  0  0  0  0
   -0.4125    1.7605    0.0000 O   0  0  0  0  0  0  0  0  0  0  0  0
    0.4125    3.1895    0.0000 N   0  0  0  0  0  0  0  0  0  0  0  0
    1.2375    3.1895    0.0000 C   0  0  0  0  0  0  0  0  0  0  0  0
    1.6500    2.4750    0.0000 C   0  0  0  0  0  0  0  0  0  0  0  0
    1.6500    3.9039    0.0000 C   0  0  0  0  0  0  0  0  0  0  0  0
    0.7145    2.0625    0.0000 O   0  0  0  0  0  0  0  0  0  0  0  0
    0.7145    1.2375    0.0000 C   0  0  0  0  0  0  0  0  0  0  0  0
    1.4289    0.8250    0.0000 C   0  0  0  0  0  0  0  0  0  0  0  0
    1.4289   -0.0000    0.0000 C   0  0  0  0  0  0  0  0  0  0  0  0
    0.7145   -0.4125    0.0000 C   0  0  0  0  0  0  0  0  0  0  0  0
    0.7145   -1.2375    0.0000 S   0  0  0  0  0  0  0  0  0  0  0  0
    1.4289   -1.6500    0.0000 C   0  0  0  0  0  0  0  0  0  0  0  0
    0.0000    0.0000    0.0000 C   0  0  0  0  0  0  0  0  0  0  0  0
   -0.7145   -0.4125    0.0000 C   0  0  0  0  0  0  0  0  0  0  0  0
    0.0000    0.8250    0.0000 C   0  0  0  0  0  0  0  0  0  0  0  0
  1  2  1  0  0  0  0
  2  3  1  0  0  0  0
  3  4  1  0  0  0  0
  4  5  2  0  0  0  0
  4  6  1  0  0  0  0
  4 10  1  0  0  0  0
  6  7  1  0  0  0  0
  7  8  1  0  0  0  0
  7  9  1  0  0  0  0
 10 11  1  0  0  0  0
 11 12  2  0  0  0  0
 11 19  1  0  0  0  0
 12 13  1  0  0  0  0
 13 14  2  0  0  0  0
 14 15  1  0  0  0  0
 14 17  1  0  0  0  0
 15 16  1  0  0  0  0
 17 18  1  0  0  0  0
 17 19  2  0  0  0  0
M  END
$$$$
fenhexamid
 OpenBabel03171423152D

 19 20  0  0  0  0  0  0  0  0999 V2000
    1.4289   -1.6500    0.0000 C   0  0  0  0  0  0  0  0  0  0  0  0
    1.9592   -2.2820    0.0000 C   0  0  0  0  0  0  0  0  0  0  0  0
    2.6737   -2.6945    0.0000 C   0  0  0  0  0  0  0  0  0  0  0  0
    2.6737   -3.5195    0.0000 C   0  0  0  0  0  0  0  0  0  0  0  0
    1.9592   -3.9320    0.0000 C   0  0  0  0  0  0  0  0  0  0  0  0
    1.2448   -3.5195    0.0000 C   0  0  0  0  0  0  0  0  0  0  0  0
    1.2448   -2.6945    0.0000 C   0  0  0  0  0  0  0  0  0  0  0  0
    2.4895   -1.6500    0.0000 C   0  0  0  0  0  0  0  0  0  0  0  0
    3.3020   -1.7933    0.0000 O   0  0  0  0  0  0  0  0  0  0  0  0
    2.2074   -0.8748    0.0000 N   0  0  0  0  0  0  0  0  0  0  0  0
    2.7377   -0.2428    0.0000 C   0  0  0  0  0  0  0  0  0  0  0  0
    2.4555    0.5325    0.0000 C   0  0  0  0  0  0  0  0  0  0  0  0
    2.9858    1.1645    0.0000 C   0  0  0  0  0  0  0  0  0  0  0  0
    3.7983    1.0212    0.0000 C   0  0  0  0  0  0  0  0  0  0  0  0
    4.3286    1.6532    0.0000 O   0  0  0  0  0  0  0  0  0  0  0  0
    4.0804    0.2460    0.0000 C   0  0  0  0  0  0  0  0  0  0  0  0
    4.8929    0.1027    0.0000 Cl  0  0  0  0  0  0  0  0  0  0  0  0
    3.5501   -0.3860    0.0000 C   0  0  0  0  0  0  0  0  0  0  0  0
    3.8323   -1.1613    0.0000 Cl  0  0  0  0  0  0  0  0  0  0  0  0
  1  2  1  0  0  0  0
  2  3  1  0  0  0  0
  2  7  1  0  0  0  0
  2  8  1  0  0  0  0
  3  4  1  0  0  0  0
  4  5  1  0  0  0  0
  5  6  1  0  0  0  0
  6  7  1  0  0  0  0
  8  9  2  0  0  0  0
  8 10  1  0  0  0  0
 10 11  1  0  0  0  0
 11 12  2  0  0  0  0
 11 18  1  0  0  0  0
 12 13  1  0  0  0  0
 13 14  2  0  0  0  0
 14 15  1  0  0  0  0
 14 16  1  0  0  0  0
 16 17  1  0  0  0  0
 16 18  2  0  0  0  0
 18 19  1  0  0  0  0
M  END
$$$$
isopropyl-N,N,N-dimethyloctadecylammonium chloride, n-
 OpenBabel03171423152D

 25 23  0  0  0  0  0  0  0  0999 V2000
    0.0000    0.0000    0.0000 Cl  0  5  0  0  0  0  0  0  0  0  0  0
    2.2393    0.1203    0.0000 C   0  0  0  0  0  0  0  0  0  0  0  0
    2.9538   -0.2922    0.0000 C   0  0  0  0  0  0  0  0  0  0  0  0
    3.6682    0.1203    0.0000 C   0  0  0  0  0  0  0  0  0  0  0  0
    4.3827   -0.2922    0.0000 C   0  0  0  0  0  0  0  0  0  0  0  0
    5.0972    0.1203    0.0000 C   0  0  0  0  0  0  0  0  0  0  0  0
    5.8116   -0.2922    0.0000 C   0  0  0  0  0  0  0  0  0  0  0  0
    6.5261    0.1203    0.0000 C   0  0  0  0  0  0  0  0  0  0  0  0
    7.2406   -0.2922    0.0000 C   0  0  0  0  0  0  0  0  0  0  0  0
    7.9551    0.1203    0.0000 C   0  0  0  0  0  0  0  0  0  0  0  0
    8.6695   -0.2922    0.0000 C   0  0  0  0  0  0  0  0  0  0  0  0
    9.3840    0.1203    0.0000 C   0  0  0  0  0  0  0  0  0  0  0  0
   10.0985   -0.2922    0.0000 C   0  0  0  0  0  0  0  0  0  0  0  0
   10.8129    0.1203    0.0000 C   0  0  0  0  0  0  0  0  0  0  0  0
   11.5274   -0.2922    0.0000 C   0  0  0  0  0  0  0  0  0  0  0  0
   12.2419    0.1203    0.0000 C   0  0  0  0  0  0  0  0  0  0  0  0
   12.9564   -0.2922    0.0000 C   0  0  0  0  0  0  0  0  0  0  0  0
   13.6708    0.1203    0.0000 C   0  0  0  0  0  0  0  0  0  0  0  0
   14.3853   -0.2922    0.0000 C   0  0  0  0  0  0  0  0  0  0  0  0
   15.0998    0.1203    0.0000 N   0  3  0  0  0  0  0  0  0  0  0  0
   15.5123   -0.5942    0.0000 C   0  0  0  0  0  0  0  0  0  0  0  0
   14.6873    0.8348    0.0000 C   0  0  0  0  0  0  0  0  0  0  0  0
   15.8142    0.5328    0.0000 C   0  0  0  0  0  0  0  0  0  0  0  0
   16.5287    0.1203    0.0000 C   0  0  0  0  0  0  0  0  0  0  0  0
   17.2432    0.5328    0.0000 C   0  0  0  0  0  0  0  0  0  0  0  0
  2  3  1  0  0  0  0
  3  4  1  0  0  0  0
  4  5  1  0  0  0  0
  5  6  1  0  0  0  0
  6  7  1  0  0  0  0
  7  8  1  0  0  0  0
  8  9  1  0  0  0  0
  9 10  1  0  0  0  0
 10 11  1  0  0  0  0
 11 12  1  0  0  0  0
 12 13  1  0  0  0  0
 13 14  1  0  0  0  0
 14 15  1  0  0  0  0
 15 16  1  0  0  0  0
 16 17  1  0  0  0  0
 17 18  1  0  0  0  0
 18 19  1  0  0  0  0
 19 20  1  0  0  0  0
 20 21  1  0  0  0  0
 20 22  1  0  0  0  0
 20 23  1  0  0  0  0
 23 24  1  0  0  0  0
 24 25  1  0  0  0  0
M  CHG  2   1  -1  20   1
M  END
$$$$
3,13 OCTADECADIEN-1-YL ACETATE 3,7-DIMETHYL-6-OCTEN-1-OL
 OpenBabel03171423152D

 32 31  0  0  0  0  0  0  0  0999 V2000
    2.2539    0.0000    0.0000 C   0  0  0  0  0  0  0  0  0  0  0  0
    2.2539   -0.8250    0.0000 O   0  0  0  0  0  0  0  0  0  0  0  0
    1.5395    0.4125    0.0000 C   0  0  0  0  0  0  0  0  0  0  0  0
    3.6829   -0.0000    0.0000 C   0  0  0  0  0  0  0  0  0  0  0  0
    4.3974    0.4125    0.0000 C   0  0  0  0  0  0  0  0  0  0  0  0
    5.1118    0.0000    0.0000 C   0  0  3  0  0  0  0  0  0  0  0  0
    5.8263    0.4125    0.0000 C   0  0  0  0  0  0  0  0  0  0  0  0
    6.5408    0.0000    0.0000 C   0  0  0  0  0  0  0  0  0  0  0  0
    7.2552    0.4125    0.0000 C   0  0  0  0  0  0  0  0  0  0  0  0
    7.9697    0.0000    0.0000 C   0  0  0  0  0  0  0  0  0  0  0  0
    8.6842    0.4125    0.0000 C   0  0  0  0  0  0  0  0  0  0  0  0
    2.9684    0.4125    0.0000 O   0  0  0  0  0  0  0  0  0  0  0  0
    5.1118   -0.8250    0.0000 C   0  0  0  0  0  0  0  0  0  0  0  0
    7.9697   -0.8250    0.0000 C   0  0  0  0  0  0  0  0  0  0  0  0
    0.8250    0.0000    0.0000 C   0  0  0  0  0  0  0  0  0  0  0  0
    0.1105    0.4125    0.0000 C   0  0  0  0  0  0  0  0  0  0  0  0
   -0.6039    0.0000    0.0000 C   0  0  0  0  0  0  0  0  0  0  0  0
   -1.3184    0.4125    0.0000 C   0  0  0  0  0  0  0  0  0  0  0  0
   -2.0329    0.0000    0.0000 C   0  0  0  0  0  0  0  0  0  0  0  0
   -2.7474    0.4125    0.0000 C   0  0  0  0  0  0  0  0  0  0  0  0
   -3.4618   -0.0000    0.0000 C   0  0  0  0  0  0  0  0  0  0  0  0
   -4.1763    0.4125    0.0000 C   0  0  0  0  0  0  0  0  0  0  0  0
   -4.8908    0.0000    0.0000 C   0  0  0  0  0  0  0  0  0  0  0  0
   -5.6052    0.4125    0.0000 C   0  0  0  0  0  0  0  0  0  0  0  0
   -6.3197   -0.0000    0.0000 C   0  0  0  0  0  0  0  0  0  0  0  0
   -7.0342    0.4125    0.0000 C   0  0  0  0  0  0  0  0  0  0  0  0
   -7.7487   -0.0000    0.0000 C   0  0  0  0  0  0  0  0  0  0  0  0
   -8.4631    0.4125    0.0000 C   0  0  0  0  0  0  0  0  0  0  0  0
   -9.1776   -0.0000    0.0000 C   0  0  0  0  0  0  0  0  0  0  0  0
   -9.1776   -0.8250    0.0000 C   0  0  0  0  0  0  0  0  0  0  0  0
   -9.8921   -1.2375    0.0000 C   0  0  0  0  0  0  0  0  0  0  0  0
   -9.8921   -2.0625    0.0000 C   0  0  0  0  0  0  0  0  0  0  0  0
  1  2  2  0  0  0  0
  1  3  1  0  0  0  0
  1 12  1  0  0  0  0
  3 15  1  0  0  0  0
  4  5  1  0  0  0  0
  4 12  1  0  0  0  0
  5  6  1  0  0  0  0
  6  7  1  0  0  0  0
  6 13  1  0  0  0  0
  7  8  1  0  0  0  0
  8  9  1  0  0  0  0
  9 10  2  0  0  0  0
 10 11  1  0  0  0  0
 10 14  1  0  0  0  0
 15 16  1  0  0  0  0
 17 16  1  0  0  0  0
 17 18  2  3  0  0  0
 18 19  1  0  0  0  0
 19 20  1  0  0  0  0
 20 21  1  0  0  0  0
 21 22  1  0  0  0  0
 22 23  1  0  0  0  0
 23 24  1  0  0  0  0
 24 25  1  0  0  0  0
 25 26  1  0  0  0  0
 27 26  1  0  0  0  0
 27 28  2  3  0  0  0
 28 29  1  0  0  0  0
 29 30  1  0  0  0  0
 30 31  1  0  0  0  0
 31 32  1  0  0  0  0
M  END
>  <type>
systematic

$$$$
oxidate
 OpenBabel03171423152D

  2  1  0  0  0  0  0  0  0  0999 V2000
    0.8250    0.0000    0.0000 O   0  5  0  0  0  0  0  0  0  0  0  0
    0.0000    0.0000    0.0000 O   0  5  0  0  0  0  0  0  0  0  0  0
  1  2  1  0  0  0  0
M  CHG  2   1  -1   2  -1
M  END
$$$$
3-iodo-2-propynyl butylcarbamate
 OpenBabel03171423152D

 12 11  0  0  0  0  0  0  0  0999 V2000
    2.9980    2.5559    0.0000 C   0  0  0  0  0  0  0  0  0  0  0  0
    3.7125    2.1434    0.0000 C   0  0  0  0  0  0  0  0  0  0  0  0
    4.4270    2.5559    0.0000 C   0  0  0  0  0  0  0  0  0  0  0  0
    5.1414    2.1434    0.0000 C   0  0  0  0  0  0  0  0  0  0  0  0
    5.8559    2.5559    0.0000 N   0  0  0  0  0  0  0  0  0  0  0  0
    6.5704    2.1434    0.0000 C   0  0  0  0  0  0  0  0  0  0  0  0
    6.5704    1.3184    0.0000 O   0  0  0  0  0  0  0  0  0  0  0  0
    7.2849    2.5559    0.0000 O   0  0  0  0  0  0  0  0  0  0  0  0
    7.9993    2.1434    0.0000 C   0  0  0  0  0  0  0  0  0  0  0  0
    8.7138    2.5559    0.0000 C   0  0  0  0  0  0  0  0  0  0  0  0
    9.4283    2.9684    0.0000 C   0  0  0  0  0  0  0  0  0  0  0  0
   10.1427    3.3809    0.0000 I   0  0  0  0  0  0  0  0  0  0  0  0
  1  2  1  0  0  0  0
  2  3  1  0  0  0  0
  3  4  1  0  0  0  0
  4  5  1  0  0  0  0
  5  6  1  0  0  0  0
  6  7  2  0  0  0  0
  6  8  1  0  0  0  0
  8  9  1  0  0  0  0
  9 10  1  0  0  0  0
 10 11  3  0  0  0  0
 11 12  1  0  0  0  0
M  END
$$$$
trifloxystrobin
 OpenBabel03171423152D

 29 30  0  0  0  0  0  0  0  0999 V2000
    1.4289   -2.4750    0.0000 C   0  0  0  0  0  0  0  0  0  0  0  0
    0.7145   -2.8875    0.0000 O   0  0  0  0  0  0  0  0  0  0  0  0
    0.0000   -2.4750    0.0000 N   0  0  0  0  0  0  0  0  0  0  0  0
   -0.7145   -2.8875    0.0000 C   0  0  0  0  0  0  0  0  0  0  0  0
   -1.4289   -2.4750    0.0000 C   0  0  0  0  0  0  0  0  0  0  0  0
   -2.1434   -2.8875    0.0000 O   0  0  0  0  0  0  0  0  0  0  0  0
   -1.4289   -1.6500    0.0000 O   0  0  0  0  0  0  0  0  0  0  0  0
   -2.1434   -1.2375    0.0000 C   0  0  0  0  0  0  0  0  0  0  0  0
   -0.7145   -3.7125    0.0000 C   0  0  0  0  0  0  0  0  0  0  0  0
   -1.4289   -4.1250    0.0000 C   0  0  0  0  0  0  0  0  0  0  0  0
   -1.4289   -4.9500    0.0000 C   0  0  0  0  0  0  0  0  0  0  0  0
   -0.7145   -5.3625    0.0000 C   0  0  0  0  0  0  0  0  0  0  0  0
    0.0000   -4.9500    0.0000 C   0  0  0  0  0  0  0  0  0  0  0  0
    0.0000   -4.1250    0.0000 C   0  0  0  0  0  0  0  0  0  0  0  0
    0.7145   -3.7125    0.0000 C   0  0  0  0  0  0  0  0  0  0  0  0
    1.4289   -4.1250    0.0000 O   0  0  0  0  0  0  0  0  0  0  0  0
    2.1434   -3.7125    0.0000 N   0  0  0  0  0  0  0  0  0  0  0  0
    2.8579   -4.1250    0.0000 C   0  0  0  0  0  0  0  0  0  0  0  0
    2.8579   -4.9500    0.0000 C   0  0  0  0  0  0  0  0  0  0  0  0
    3.5724   -3.7125    0.0000 C   0  0  0  0  0  0  0  0  0  0  0  0
    3.5724   -2.8875    0.0000 C   0  0  0  0  0  0  0  0  0  0  0  0
    4.2868   -2.4750    0.0000 C   0  0  0  0  0  0  0  0  0  0  0  0
    5.0013   -2.8875    0.0000 C   0  0  0  0  0  0  0  0  0  0  0  0
    5.0013   -3.7125    0.0000 C   0  0  0  0  0  0  0  0  0  0  0  0
    4.2868   -4.1250    0.0000 C   0  0  0  0  0  0  0  0  0  0  0  0
    5.7158   -4.1250    0.0000 C   0  0  0  0  0  0  0  0  0  0  0  0
    6.4302   -4.5375    0.0000 F   0  0  0  0  0  0  0  0  0  0  0  0
    5.3033   -4.8395    0.0000 F   0  0  0  0  0  0  0  0  0  0  0  0
    6.1283   -3.4105    0.0000 F   0  0  0  0  0  0  0  0  0  0  0  0
  1  2  1  0  0  0  0
  2  3  1  0  0  0  0
  3  4  2  0  0  0  0
  4  5  1  0  0  0  0
  4  9  1  0  0  0  0
  5  6  2  0  0  0  0
  5  7  1  0  0  0  0
  7  8  1  0  0  0  0
  9 10  2  0  0  0  0
  9 14  1  0  0  0  0
 10 11  1  0  0  0  0
 11 12  2  0  0  0  0
 12 13  1  0  0  0  0
 13 14  2  0  0  0  0
 14 15  1  0  0  0  0
 15 16  1  0  0  0  0
 16 17  1  0  0  0  0
 17 18  2  0  0  0  0
 18 19  1  0  0  0  0
 18 20  1  0  0  0  0
 20 21  2  0  0  0  0
 20 25  1  0  0  0  0
 21 22  1  0  0  0  0
 22 23  2  0  0  0  0
 23 24  1  0  0  0  0
 24 25  2  0  0  0  0
 24 26  1  0  0  0  0
 26 27  1  0  0  0  0
 26 28  1  0  0  0  0
 26 29  1  0  0  0  0
M  END
>  <type>
common

$$$$
Carbophos
 OpenBabel03171423152D

 19 18  0  0  0  0  0  0  0  0999 V2000
   -0.1914   -0.7145    0.0000 C   0  0  0  0  0  0  0  0  0  0  0  0
    0.5230   -1.1270    0.0000 C   0  0  0  0  0  0  0  0  0  0  0  0
    1.2375   -0.7145    0.0000 O   0  0  0  0  0  0  0  0  0  0  0  0
    1.9520   -1.1270    0.0000 C   0  0  0  0  0  0  0  0  0  0  0  0
    1.9520   -1.9520    0.0000 O   0  0  0  0  0  0  0  0  0  0  0  0
    2.6664   -0.7145    0.0000 C   0  0  0  0  0  0  0  0  0  0  0  0
    3.3809   -1.1270    0.0000 C   0  0  3  0  0  0  0  0  0  0  0  0
    4.0954   -0.7145    0.0000 S   0  0  0  0  0  0  0  0  0  0  0  0
    4.8099   -1.1270    0.0000 P   0  0  0  0  0  0  0  0  0  0  0  0
    4.3974   -1.8414    0.0000 S   0  0  0  0  0  0  0  0  0  0  0  0
    5.5243   -1.5395    0.0000 O   0  0  0  0  0  0  0  0  0  0  0  0
    6.2388   -1.1270    0.0000 C   0  0  0  0  0  0  0  0  0  0  0  0
    5.2224   -0.4125    0.0000 O   0  0  0  0  0  0  0  0  0  0  0  0
    6.0474   -0.4125    0.0000 C   0  0  0  0  0  0  0  0  0  0  0  0
    3.3809   -1.9520    0.0000 C   0  0  0  0  0  0  0  0  0  0  0  0
    4.0954   -2.3645    0.0000 O   0  0  0  0  0  0  0  0  0  0  0  0
    2.6664   -2.3645    0.0000 O   0  0  0  0  0  0  0  0  0  0  0  0
    2.6664   -3.1895    0.0000 C   0  0  0  0  0  0  0  0  0  0  0  0
    1.9520   -3.6020    0.0000 C   0  0  0  0  0  0  0  0  0  0  0  0
  1  2  1  0  0  0  0
  2  3  1  0  0  0  0
  3  4  1  0  0  0  0
  4  5  2  0  0  0  0
  4  6  1  0  0  0  0
  6  7  1  0  0  0  0
  7  8  1  0  0  0  0
  7 15  1  0  0  0  0
  8  9  1  0  0  0  0
  9 10  2  0  0  0  0
  9 11  1  0  0  0  0
  9 13  1  0  0  0  0
 11 12  1  0  0  0  0
 13 14  1  0  0  0  0
 15 16  2  0  0  0  0
 15 17  1  0  0  0  0
 17 18  1  0  0  0  0
 18 19  1  0  0  0  0
M  END
$$$$
TEA
 OpenBabel03171423152D

 10  9  0  0  0  0  0  0  0  0999 V2000
    1.4289   -4.7289    0.0000 O   0  0  0  0  0  0  0  0  0  0  0  0
    1.4289   -3.9039    0.0000 C   0  0  0  0  0  0  0  0  0  0  0  0
    0.7145   -3.4914    0.0000 C   0  0  0  0  0  0  0  0  0  0  0  0
    0.7145   -2.6664    0.0000 N   0  0  0  0  0  0  0  0  0  0  0  0
   -0.0000   -2.2539    0.0000 C   0  0  0  0  0  0  0  0  0  0  0  0
   -0.0000   -1.4289    0.0000 C   0  0  0  0  0  0  0  0  0  0  0  0
   -0.7145   -1.0164    0.0000 O   0  0  0  0  0  0  0  0  0  0  0  0
    1.4289   -2.2539    0.0000 C   0  0  0  0  0  0  0  0  0  0  0  0
    1.4289   -1.4289    0.0000 C   0  0  0  0  0  0  0  0  0  0  0  0
    2.1434   -1.0164    0.0000 O   0  0  0  0  0  0  0  0  0  0  0  0
  1  2  1  0  0  0  0
  2  3  1  0  0  0  0
  3  4  1  0  0  0  0
  4  5  1  0  0  0  0
  4  8  1  0  0  0  0
  5  6  1  0  0  0  0
  6  7  1  0  0  0  0
  8  9  1  0  0  0  0
  9 10  1  0  0  0  0
M  END
$$$$
2-methyl-4-isothiazolin-3-one
 OpenBabel03171423152D

  7  7  0  0  0  0  0  0  0  0999 V2000
    0.5678    1.9393    0.0000 C   0  0  0  0  0  0  0  0  0  0  0  0
    0.5678    1.1143    0.0000 N   0  0  0  0  0  0  0  0  0  0  0  0
    1.2352    0.6294    0.0000 S   0  0  0  0  0  0  0  0  0  0  0  0
    0.9803   -0.1553    0.0000 C   0  0  0  0  0  0  0  0  0  0  0  0
    0.1553   -0.1553    0.0000 C   0  0  0  0  0  0  0  0  0  0  0  0
   -0.0997    0.6294    0.0000 C   0  0  0  0  0  0  0  0  0  0  0  0
   -0.8843    0.8843    0.0000 O   0  0  0  0  0  0  0  0  0  0  0  0
  1  2  1  0  0  0  0
  2  3  1  0  0  0  0
  2  6  1  0  0  0  0
  3  4  1  0  0  0  0
  4  5  2  0  0  0  0
  5  6  1  0  0  0  0
  6  7  2  0  0  0  0
M  END
$$$$
flubendiamide
 OpenBabel03171423152D

 38 39  0  0  0  0  0  0  0  0999 V2000
    2.8579    0.8250    0.0000 C   0  0  0  0  0  0  0  0  0  0  0  0
    2.8579    0.0000    0.0000 C   0  0  0  0  0  0  0  0  0  0  0  0
    3.5724   -0.4125    0.0000 C   0  0  0  0  0  0  0  0  0  0  0  0
    4.2868   -0.0000    0.0000 N   0  0  0  0  0  0  0  0  0  0  0  0
    5.0013   -0.4125    0.0000 C   0  0  0  0  0  0  0  0  0  0  0  0
    5.7158   -0.0000    0.0000 O   0  0  0  0  0  0  0  0  0  0  0  0
    5.0013   -1.2375    0.0000 C   0  0  0  0  0  0  0  0  0  0  0  0
    5.7158   -1.6500    0.0000 C   0  0  0  0  0  0  0  0  0  0  0  0
    6.4302   -1.2375    0.0000 C   0  0  0  0  0  0  0  0  0  0  0  0
    6.4302   -0.4125    0.0000 O   0  0  0  0  0  0  0  0  0  0  0  0
    7.1447   -1.6500    0.0000 N   0  0  0  0  0  0  0  0  0  0  0  0
    7.8592   -1.2375    0.0000 C   0  0  0  0  0  0  0  0  0  0  0  0
    7.4467   -0.5230    0.0000 C   0  0  0  0  0  0  0  0  0  0  0  0
    8.2717   -1.9520    0.0000 C   0  0  0  0  0  0  0  0  0  0  0  0
    8.5737   -0.8250    0.0000 C   0  0  0  0  0  0  0  0  0  0  0  0
    9.2881   -1.2375    0.0000 S   0  0  0  0  0  0  0  0  0  0  0  0
    9.7006   -0.5230    0.0000 C   0  0  0  0  0  0  0  0  0  0  0  0
    8.8756   -1.9520    0.0000 O   0  0  0  0  0  0  0  0  0  0  0  0
   10.0026   -1.6500    0.0000 O   0  0  0  0  0  0  0  0  0  0  0  0
    5.7158   -2.4750    0.0000 C   0  0  0  0  0  0  0  0  0  0  0  0
    6.4302   -2.8875    0.0000 I   0  0  0  0  0  0  0  0  0  0  0  0
    5.0013   -2.8875    0.0000 C   0  0  0  0  0  0  0  0  0  0  0  0
    4.2868   -2.4750    0.0000 C   0  0  0  0  0  0  0  0  0  0  0  0
    4.2868   -1.6500    0.0000 C   0  0  0  0  0  0  0  0  0  0  0  0
    3.5724   -1.2375    0.0000 C   0  0  0  0  0  0  0  0  0  0  0  0
    2.8579   -1.6500    0.0000 C   0  0  0  0  0  0  0  0  0  0  0  0
    2.1434   -1.2375    0.0000 C   0  0  0  0  0  0  0  0  0  0  0  0
    2.1434   -0.4125    0.0000 C   0  0  0  0  0  0  0  0  0  0  0  0
    1.4289   -1.6500    0.0000 C   0  0  0  0  0  0  0  0  0  0  0  0
    0.7145   -2.0625    0.0000 F   0  0  0  0  0  0  0  0  0  0  0  0
    1.8414   -2.3645    0.0000 C   0  0  0  0  0  0  0  0  0  0  0  0
    2.2539   -3.0789    0.0000 F   0  0  0  0  0  0  0  0  0  0  0  0
    1.1270   -2.7770    0.0000 F   0  0  0  0  0  0  0  0  0  0  0  0
    2.5559   -1.9520    0.0000 F   0  0  0  0  0  0  0  0  0  0  0  0
    1.0164   -0.9355    0.0000 C   0  0  0  0  0  0  0  0  0  0  0  0
    0.6039   -0.2211    0.0000 F   0  0  0  0  0  0  0  0  0  0  0  0
    1.7309   -0.5230    0.0000 F   0  0  0  0  0  0  0  0  0  0  0  0
    0.3020   -1.3480    0.0000 F   0  0  0  0  0  0  0  0  0  0  0  0
  1  2  1  0  0  0  0
  2  3  2  0  0  0  0
  2 28  1  0  0  0  0
  3  4  1  0  0  0  0
  3 25  1  0  0  0  0
  4  5  1  0  0  0  0
  5  6  2  0  0  0  0
  5  7  1  0  0  0  0
  7  8  2  0  0  0  0
  7 24  1  0  0  0  0
  8  9  1  0  0  0  0
  8 20  1  0  0  0  0
  9 10  2  0  0  0  0
  9 11  1  0  0  0  0
 11 12  1  0  0  0  0
 12 13  1  0  0  0  0
 12 14  1  0  0  0  0
 12 15  1  0  0  0  0
 15 16  1  0  0  0  0
 16 17  1  0  0  0  0
 16 18  2  0  0  0  0
 16 19  2  0  0  0  0
 20 21  1  0  0  0  0
 20 22  2  0  0  0  0
 22 23  1  0  0  0  0
 23 24  2  0  0  0  0
 25 26  2  0  0  0  0
 26 27  1  0  0  0  0
 27 28  2  0  0  0  0
 27 29  1  0  0  0  0
 29 30  1  0  0  0  0
 29 31  1  0  0  0  0
 29 35  1  0  0  0  0
 31 32  1  0  0  0  0
 31 33  1  0  0  0  0
 31 34  1  0  0  0  0
 35 36  1  0  0  0  0
 35 37  1  0  0  0  0
 35 38  1  0  0  0  0
M  END
$$$$
milbemycin A3
 OpenBabel03171423152D

 38 42  0  0  1  0  0  0  0  0999 V2000
   11.3707    2.0901    0.0000 C   0  0  0  0  0  0  0  0  0  0  0  0
   10.6064    1.7795    0.0000 C   0  0  1  0  0  0  0  0  0  0  0  0
   10.4933    0.9623    0.0000 C   0  0  0  0  0  0  0  0  0  0  0  0
    9.7290    0.6516    0.0000 C   0  0  0  0  0  0  0  0  0  0  0  0
    9.0778    1.1582    0.0000 C   0  0  1  0  0  0  0  0  0  0  0  0
    8.4267    1.6648    0.0000 C   0  0  0  0  0  0  0  0  0  0  0  0
    7.6624    1.3542    0.0000 C   0  0  2  0  0  0  0  0  0  0  0  0
    7.5492    0.5370    0.0000 C   0  0  0  0  0  0  0  0  0  0  0  0
    8.2004    0.0304    0.0000 C   0  0  1  0  0  0  0  0  0  0  0  0
    8.0873   -0.7868    0.0000 C   0  0  0  0  0  0  0  0  0  0  0  0
    7.3230   -1.0974    0.0000 C   0  0  0  0  0  0  0  0  0  0  0  0
    7.2098   -1.9146    0.0000 C   0  0  0  0  0  0  0  0  0  0  0  0
    7.8610   -2.4212    0.0000 C   0  0  0  0  0  0  0  0  0  0  0  0
    6.4455   -2.2252    0.0000 C   0  0  0  0  0  0  0  0  0  0  0  0
    5.7944   -1.7187    0.0000 C   0  0  1  0  0  0  0  0  0  0  0  0
    5.0301   -2.0293    0.0000 C   0  0  0  0  0  0  0  0  0  0  0  0
    5.9075   -0.9015    0.0000 C   0  0  0  0  0  0  0  0  0  0  0  0
    5.2564   -0.3949    0.0000 C   0  0  0  0  0  0  0  0  0  0  0  0
    5.3695    0.4223    0.0000 C   0  0  0  0  0  0  0  0  0  0  0  0
    4.7184    0.9289    0.0000 C   0  0  0  0  0  0  0  0  0  0  0  0
    3.8955    0.8697    0.0000 C   0  0  0  0  0  0  0  0  0  0  0  0
    3.5849    1.6340    0.0000 O   0  0  0  0  0  0  0  0  0  0  0  0
    4.2158    2.1656    0.0000 C   0  0  2  0  0  0  0  0  0  0  0  0
    4.2429    2.9901    0.0000 C   0  0  2  0  0  0  0  0  0  0  0  0
    3.5423    3.4259    0.0000 O   0  0  0  0  0  0  0  0  0  0  0  0
    4.9705    3.3789    0.0000 C   0  0  0  0  0  0  0  0  0  0  0  0
    4.9976    4.2035    0.0000 C   0  0  0  0  0  0  0  0  0  0  0  0
    5.6710    2.9432    0.0000 C   0  0  0  0  0  0  0  0  0  0  0  0
    5.5958    2.0567    0.0000 C   0  0  1  0  0  0  0  0  0  0  0  0
    6.2469    1.5502    0.0000 C   0  0  0  0  0  0  0  0  0  0  0  0
    6.1338    0.7330    0.0000 O   0  0  0  0  0  0  0  0  0  0  0  0
    7.0112    1.8608    0.0000 O   0  0  0  0  0  0  0  0  0  0  0  0
    4.8315    1.7461    0.0000 C   0  0  2  0  0  0  0  0  0  0  0  0
    4.9188    2.5665    0.0000 O   0  0  0  0  0  0  0  0  0  0  0  0
    8.9647    0.3410    0.0000 O   0  0  0  0  0  0  0  0  0  0  0  0
    9.1910    1.9754    0.0000 O   0  0  0  0  0  0  0  0  0  0  0  0
    9.9553    2.2861    0.0000 C   0  0  2  0  0  0  0  0  0  0  0  0
   10.0684    3.1033    0.0000 C   0  0  0  0  0  0  0  0  0  0  0  0
  2  1  1  1  0  0  0
  2  3  1  0  0  0  0
  2 37  1  0  0  0  0
  3  4  1  0  0  0  0
  5  4  1  6  0  0  0
  5  6  1  0  0  0  0
  5 35  1  0  0  0  0
  5 36  1  0  0  0  0
  7  6  1  6  0  0  0
  7  8  1  0  0  0  0
  7 32  1  0  0  0  0
  9  8  1  6  0  0  0
  9 10  1  0  0  0  0
  9 35  1  0  0  0  0
 10 11  1  0  0  0  0
 11 12  2  0  0  0  0
 12 13  1  0  0  0  0
 12 14  1  0  0  0  0
 14 15  1  0  0  0  0
 15 16  1  1  0  0  0
 15 17  1  0  0  0  0
 17 18  2  0  0  0  0
 18 19  1  0  0  0  0
 19 20  2  0  0  0  0
 20 21  1  0  0  0  0
 20 33  1  0  0  0  0
 21 22  1  0  0  0  0
 23 22  1  6  0  0  0
 23 24  1  0  0  0  0
 23 33  1  0  0  0  0
 24 25  1  6  0  0  0
 24 26  1  0  0  0  0
 26 27  1  0  0  0  0
 26 28  2  0  0  0  0
 29 28  1  1  0  0  0
 29 30  1  0  0  0  0
 29 33  1  0  0  0  0
 30 31  2  0  0  0  0
 30 32  1  0  0  0  0
 33 34  1  1  0  0  0
 36 37  1  0  0  0  0
 37 38  1  6  0  0  0
M  END
$$$$
isopropylamine
 OpenBabel03171423152D

  4  3  0  0  0  0  0  0  0  0999 V2000
    1.2375    0.7145    0.0000 C   0  0  0  0  0  0  0  0  0  0  0  0
    0.8250    0.0000    0.0000 C   0  0  0  0  0  0  0  0  0  0  0  0
    1.2375   -0.7145    0.0000 C   0  0  0  0  0  0  0  0  0  0  0  0
    0.0000    0.0000    0.0000 N   0  0  0  0  0  0  0  0  0  0  0  0
  1  2  1  0  0  0  0
  2  3  1  0  0  0  0
  2  4  1  0  0  0  0
M  END
$$$$
Amitraz
 OpenBabel03171423152D

 22 23  0  0  0  0  0  0  0  0999 V2000
    2.8579    0.0000    0.0000 C   0  0  0  0  0  0  0  0  0  0  0  0
    3.5724   -0.4125    0.0000 N   0  0  0  0  0  0  0  0  0  0  0  0
    3.5724   -1.2375    0.0000 C   0  0  0  0  0  0  0  0  0  0  0  0
    4.2868   -1.6500    0.0000 N   0  0  0  0  0  0  0  0  0  0  0  0
    4.2868   -2.4750    0.0000 C   0  0  0  0  0  0  0  0  0  0  0  0
    5.0013   -2.8875    0.0000 C   0  0  0  0  0  0  0  0  0  0  0  0
    5.0013   -3.7125    0.0000 C   0  0  0  0  0  0  0  0  0  0  0  0
    4.2868   -4.1250    0.0000 C   0  0  0  0  0  0  0  0  0  0  0  0
    4.2868   -4.9500    0.0000 C   0  0  0  0  0  0  0  0  0  0  0  0
    3.5724   -3.7125    0.0000 C   0  0  0  0  0  0  0  0  0  0  0  0
    3.5724   -2.8875    0.0000 C   0  0  0  0  0  0  0  0  0  0  0  0
    2.8579   -2.4750    0.0000 C   0  0  0  0  0  0  0  0  0  0  0  0
    4.2868    0.0000    0.0000 C   0  0  0  0  0  0  0  0  0  0  0  0
    4.2868    0.8250    0.0000 N   0  0  0  0  0  0  0  0  0  0  0  0
    5.0013    1.2375    0.0000 C   0  0  0  0  0  0  0  0  0  0  0  0
    5.0013    2.0625    0.0000 C   0  0  0  0  0  0  0  0  0  0  0  0
    5.7158    2.4750    0.0000 C   0  0  0  0  0  0  0  0  0  0  0  0
    6.4302    2.0625    0.0000 C   0  0  0  0  0  0  0  0  0  0  0  0
    7.1447    2.4750    0.0000 C   0  0  0  0  0  0  0  0  0  0  0  0
    6.4302    1.2375    0.0000 C   0  0  0  0  0  0  0  0  0  0  0  0
    5.7158    0.8250    0.0000 C   0  0  0  0  0  0  0  0  0  0  0  0
    5.7158    0.0000    0.0000 C   0  0  0  0  0  0  0  0  0  0  0  0
  1  2  1  0  0  0  0
  2  3  1  0  0  0  0
  2 13  1  0  0  0  0
  3  4  2  0  0  0  0
  4  5  1  0  0  0  0
  5  6  2  0  0  0  0
  5 11  1  0  0  0  0
  6  7  1  0  0  0  0
  7  8  2  0  0  0  0
  8  9  1  0  0  0  0
  8 10  1  0  0  0  0
 10 11  2  0  0  0  0
 11 12  1  0  0  0  0
 13 14  2  0  0  0  0
 14 15  1  0  0  0  0
 15 16  2  0  0  0  0
 15 21  1  0  0  0  0
 16 17  1  0  0  0  0
 17 18  2  0  0  0  0
 18 19  1  0  0  0  0
 18 20  1  0  0  0  0
 20 21  2  0  0  0  0
 21 22  1  0  0  0  0
M  END
$$$$
Telar
 OpenBabel03171423152D

 23 24  0  0  0  0  0  0  0  0999 V2000
    3.5724   -2.0625    0.0000 C   0  0  0  0  0  0  0  0  0  0  0  0
    2.8579   -2.4750    0.0000 O   0  0  0  0  0  0  0  0  0  0  0  0
    2.8579   -3.3000    0.0000 C   0  0  0  0  0  0  0  0  0  0  0  0
    3.5724   -3.7125    0.0000 N   0  0  0  0  0  0  0  0  0  0  0  0
    3.5724   -4.5375    0.0000 C   0  0  0  0  0  0  0  0  0  0  0  0
    4.2868   -4.9500    0.0000 C   0  0  0  0  0  0  0  0  0  0  0  0
    2.8579   -4.9500    0.0000 N   0  0  0  0  0  0  0  0  0  0  0  0
    2.1434   -4.5375    0.0000 C   0  0  0  0  0  0  0  0  0  0  0  0
    2.1434   -3.7125    0.0000 N   0  0  0  0  0  0  0  0  0  0  0  0
    1.4289   -4.9500    0.0000 N   0  0  0  0  0  0  0  0  0  0  0  0
    0.7145   -4.5375    0.0000 C   0  0  0  0  0  0  0  0  0  0  0  0
    0.7145   -3.7125    0.0000 O   0  0  0  0  0  0  0  0  0  0  0  0
    0.0000   -4.9500    0.0000 N   0  0  0  0  0  0  0  0  0  0  0  0
   -0.7145   -4.5375    0.0000 S   0  0  0  0  0  0  0  0  0  0  0  0
   -0.3020   -3.8230    0.0000 O   0  0  0  0  0  0  0  0  0  0  0  0
   -1.1270   -5.2520    0.0000 O   0  0  0  0  0  0  0  0  0  0  0  0
   -1.4289   -4.1250    0.0000 C   0  0  0  0  0  0  0  0  0  0  0  0
   -2.1434   -4.5375    0.0000 C   0  0  0  0  0  0  0  0  0  0  0  0
   -2.8579   -4.1250    0.0000 C   0  0  0  0  0  0  0  0  0  0  0  0
   -2.8579   -3.3000    0.0000 C   0  0  0  0  0  0  0  0  0  0  0  0
   -2.1434   -2.8875    0.0000 C   0  0  0  0  0  0  0  0  0  0  0  0
   -1.4289   -3.3000    0.0000 C   0  0  0  0  0  0  0  0  0  0  0  0
   -0.7145   -2.8875    0.0000 Cl  0  0  0  0  0  0  0  0  0  0  0  0
  1  2  1  0  0  0  0
  2  3  1  0  0  0  0
  3  4  2  0  0  0  0
  3  9  1  0  0  0  0
  4  5  1  0  0  0  0
  5  6  1  0  0  0  0
  5  7  2  0  0  0  0
  7  8  1  0  0  0  0
  8  9  1  0  0  0  0
  8 10  2  3  0  0  0
 10 11  1  0  0  0  0
 11 12  1  0  0  0  0
 11 13  2  3  0  0  0
 13 14  1  0  0  0  0
 14 15  2  0  0  0  0
 14 16  2  0  0  0  0
 14 17  1  0  0  0  0
 17 18  2  0  0  0  0
 17 22  1  0  0  0  0
 18 19  1  0  0  0  0
 19 20  2  0  0  0  0
 20 21  1  0  0  0  0
 21 22  2  0  0  0  0
 22 23  1  0  0  0  0
M  END
>  <type>
common

$$$$
fenbuconazole
 OpenBabel03171423152D

 24 26  0  0  0  0  0  0  0  0999 V2000
   -1.9840    2.2671    0.0000 Cl  0  0  0  0  0  0  0  0  0  0  0  0
   -1.2695    1.8546    0.0000 C   0  0  0  0  0  0  0  0  0  0  0  0
   -0.5550    2.2671    0.0000 C   0  0  0  0  0  0  0  0  0  0  0  0
    0.1595    1.8546    0.0000 C   0  0  0  0  0  0  0  0  0  0  0  0
    0.1595    1.0296    0.0000 C   0  0  0  0  0  0  0  0  0  0  0  0
    0.8739    0.6171    0.0000 C   0  0  0  0  0  0  0  0  0  0  0  0
    0.8739   -0.2079    0.0000 C   0  0  0  0  0  0  0  0  0  0  0  0
    1.5884   -0.6204    0.0000 C   0  0  3  0  0  0  0  0  0  0  0  0
    2.3029   -1.0329    0.0000 C   0  0  0  0  0  0  0  0  0  0  0  0
    2.3029   -1.8579    0.0000 N   0  0  0  0  0  0  0  0  0  0  0  0
    2.9703   -2.3429    0.0000 C   0  0  0  0  0  0  0  0  0  0  0  0
    2.7154   -3.1275    0.0000 N   0  0  0  0  0  0  0  0  0  0  0  0
    1.8904   -3.1275    0.0000 C   0  0  0  0  0  0  0  0  0  0  0  0
    1.6354   -2.3429    0.0000 N   0  0  0  0  0  0  0  0  0  0  0  0
    1.1759   -1.3349    0.0000 C   0  0  0  0  0  0  0  0  0  0  0  0
    0.7634   -2.0494    0.0000 N   0  0  0  0  0  0  0  0  0  0  0  0
    2.0009    0.0940    0.0000 C   0  0  0  0  0  0  0  0  0  0  0  0
    1.5884    0.8085    0.0000 C   0  0  0  0  0  0  0  0  0  0  0  0
    2.0009    1.5230    0.0000 C   0  0  0  0  0  0  0  0  0  0  0  0
    2.8259    1.5230    0.0000 C   0  0  0  0  0  0  0  0  0  0  0  0
    3.2384    0.8085    0.0000 C   0  0  0  0  0  0  0  0  0  0  0  0
    2.8259    0.0940    0.0000 C   0  0  0  0  0  0  0  0  0  0  0  0
   -0.5550    0.6171    0.0000 C   0  0  0  0  0  0  0  0  0  0  0  0
   -1.2695    1.0296    0.0000 C   0  0  0  0  0  0  0  0  0  0  0  0
  1  2  1  0  0  0  0
  2  3  2  0  0  0  0
  2 24  1  0  0  0  0
  3  4  1  0  0  0  0
  4  5  2  0  0  0  0
  5  6  1  0  0  0  0
  5 23  1  0  0  0  0
  6  7  1  0  0  0  0
  7  8  1  0  0  0  0
  8  9  1  0  0  0  0
  8 15  1  0  0  0  0
  8 17  1  0  0  0  0
  9 10  1  0  0  0  0
 10 11  1  0  0  0  0
 10 14  1  0  0  0  0
 11 12  2  0  0  0  0
 12 13  1  0  0  0  0
 13 14  2  0  0  0  0
 15 16  3  0  0  0  0
 17 18  2  0  0  0  0
 17 22  1  0  0  0  0
 18 19  1  0  0  0  0
 19 20  2  0  0  0  0
 20 21  1  0  0  0  0
 21 22  2  0  0  0  0
 23 24  2  0  0  0  0
M  END
$$$$
silica
 OpenBabel03171423152D

  3  2  0  0  0  0  0  0  0  0999 V2000
    1.6500   -0.0000    0.0000 O   0  0  0  0  0  0  0  0  0  0  0  0
    2.4750   -0.0000    0.0000 Si  0  0  0  0  0  0  0  0  0  0  0  0
    3.3000    0.0000    0.0000 O   0  0  0  0  0  0  0  0  0  0  0  0
  1  2  2  0  0  0  0
  2  3  2  0  0  0  0
M  END
$$$$
n-dodecylguanidine hydrochloride
 OpenBabel03171423152D

 17 15  0  0  0  0  0  0  0  0999 V2000
    0.0000    0.0000    0.0000 Cl  0  0  0  0  0  0  0  0  0  0  0  0
    2.2393    0.2578    0.0000 C   0  0  0  0  0  0  0  0  0  0  0  0
    2.9538   -0.1547    0.0000 C   0  0  0  0  0  0  0  0  0  0  0  0
    3.6682    0.2578    0.0000 C   0  0  0  0  0  0  0  0  0  0  0  0
    4.3827   -0.1547    0.0000 C   0  0  0  0  0  0  0  0  0  0  0  0
    5.0972    0.2578    0.0000 C   0  0  0  0  0  0  0  0  0  0  0  0
    5.8116   -0.1547    0.0000 C   0  0  0  0  0  0  0  0  0  0  0  0
    6.5261    0.2578    0.0000 C   0  0  0  0  0  0  0  0  0  0  0  0
    7.2406   -0.1547    0.0000 C   0  0  0  0  0  0  0  0  0  0  0  0
    7.9551    0.2578    0.0000 C   0  0  0  0  0  0  0  0  0  0  0  0
    8.6695   -0.1547    0.0000 C   0  0  0  0  0  0  0  0  0  0  0  0
    9.3840    0.2578    0.0000 C   0  0  0  0  0  0  0  0  0  0  0  0
   10.0985   -0.1547    0.0000 C   0  0  0  0  0  0  0  0  0  0  0  0
   10.8129    0.2578    0.0000 N   0  0  0  0  0  0  0  0  0  0  0  0
   11.5274   -0.1547    0.0000 C   0  0  0  0  0  0  0  0  0  0  0  0
   12.2419    0.2578    0.0000 N   0  0  0  0  0  0  0  0  0  0  0  0
   11.5274   -0.9797    0.0000 N   0  0  0  0  0  0  0  0  0  0  0  0
  2  3  1  0  0  0  0
  3  4  1  0  0  0  0
  4  5  1  0  0  0  0
  5  6  1  0  0  0  0
  6  7  1  0  0  0  0
  7  8  1  0  0  0  0
  8  9  1  0  0  0  0
  9 10  1  0  0  0  0
 10 11  1  0  0  0  0
 11 12  1  0  0  0  0
 12 13  1  0  0  0  0
 13 14  1  0  0  0  0
 14 15  2  0  0  0  0
 15 16  1  0  0  0  0
 15 17  1  0  0  0  0
M  END
$$$$
Chlor
 OpenBabel03171423152D

  1  0  0  0  0  0  0  0  0  0999 V2000
    0.0000    0.0000    0.0000 Cl  0  0  0  0  0  0  0  0  0  0  0  0
M  END
$$$$
pyrithione
 OpenBabel03171423152D

  8  8  0  0  0  0  0  0  0  0999 V2000
    0.7145    2.0625    0.0000 O   0  0  0  0  0  0  0  0  0  0  0  0
    0.7145    1.2375    0.0000 N   0  0  0  0  0  0  0  0  0  0  0  0
    1.4289    0.8250    0.0000 C   0  0  0  0  0  0  0  0  0  0  0  0
    1.4289   -0.0000    0.0000 C   0  0  0  0  0  0  0  0  0  0  0  0
    0.7145   -0.4125    0.0000 C   0  0  0  0  0  0  0  0  0  0  0  0
    0.0000    0.0000    0.0000 C   0  0  0  0  0  0  0  0  0  0  0  0
    0.0000    0.8250    0.0000 C   0  0  0  0  0  0  0  0  0  0  0  0
   -0.7145    1.2375    0.0000 S   0  0  0  0  0  0  0  0  0  0  0  0
  1  2  1  0  0  0  0
  2  3  1  0  0  0  0
  2  7  1  0  0  0  0
  3  4  2  0  0  0  0
  4  5  1  0  0  0  0
  5  6  2  0  0  0  0
  6  7  1  0  0  0  0
  7  8  2  0  0  0  0
M  END
$$$$
abate
 OpenBabel03171423152D

 27 28  0  0  0  0  0  0  0  0999 V2000
    0.7145    1.2375    0.0000 C   0  0  0  0  0  0  0  0  0  0  0  0
    0.7145    0.4125    0.0000 O   0  0  0  0  0  0  0  0  0  0  0  0
    1.4289    0.0000    0.0000 P   0  0  0  0  0  0  0  0  0  0  0  0
    1.0164   -0.7145    0.0000 S   0  0  0  0  0  0  0  0  0  0  0  0
    1.8414    0.7145    0.0000 O   0  0  0  0  0  0  0  0  0  0  0  0
    2.6664    0.7145    0.0000 C   0  0  0  0  0  0  0  0  0  0  0  0
    2.1434   -0.4125    0.0000 O   0  0  0  0  0  0  0  0  0  0  0  0
    2.1434   -1.2375    0.0000 C   0  0  0  0  0  0  0  0  0  0  0  0
    2.8579   -1.6500    0.0000 C   0  0  0  0  0  0  0  0  0  0  0  0
    2.8579   -2.4750    0.0000 C   0  0  0  0  0  0  0  0  0  0  0  0
    2.1434   -2.8875    0.0000 C   0  0  0  0  0  0  0  0  0  0  0  0
    2.1434   -3.7125    0.0000 S   0  0  0  0  0  0  0  0  0  0  0  0
    1.4289   -4.1250    0.0000 C   0  0  0  0  0  0  0  0  0  0  0  0
    1.4289   -4.9500    0.0000 C   0  0  0  0  0  0  0  0  0  0  0  0
    0.7145   -5.3625    0.0000 C   0  0  0  0  0  0  0  0  0  0  0  0
   -0.0000   -4.9500    0.0000 C   0  0  0  0  0  0  0  0  0  0  0  0
   -0.7145   -5.3625    0.0000 O   0  0  0  0  0  0  0  0  0  0  0  0
   -0.7145   -6.1875    0.0000 P   0  0  0  0  0  0  0  0  0  0  0  0
   -1.5395   -6.1875    0.0000 S   0  0  0  0  0  0  0  0  0  0  0  0
   -0.7145   -7.0125    0.0000 O   0  0  0  0  0  0  0  0  0  0  0  0
   -0.0000   -7.4250    0.0000 C   0  0  0  0  0  0  0  0  0  0  0  0
    0.1105   -6.1875    0.0000 O   0  0  0  0  0  0  0  0  0  0  0  0
    0.5230   -6.9020    0.0000 C   0  0  0  0  0  0  0  0  0  0  0  0
   -0.0000   -4.1250    0.0000 C   0  0  0  0  0  0  0  0  0  0  0  0
    0.7145   -3.7125    0.0000 C   0  0  0  0  0  0  0  0  0  0  0  0
    1.4289   -2.4750    0.0000 C   0  0  0  0  0  0  0  0  0  0  0  0
    1.4289   -1.6500    0.0000 C   0  0  0  0  0  0  0  0  0  0  0  0
  1  2  1  0  0  0  0
  2  3  1  0  0  0  0
  3  4  2  0  0  0  0
  3  5  1  0  0  0  0
  3  7  1  0  0  0  0
  5  6  1  0  0  0  0
  7  8  1  0  0  0  0
  8  9  2  0  0  0  0
  8 27  1  0  0  0  0
  9 10  1  0  0  0  0
 10 11  2  0  0  0  0
 11 12  1  0  0  0  0
 11 26  1  0  0  0  0
 12 13  1  0  0  0  0
 13 14  2  0  0  0  0
 13 25  1  0  0  0  0
 14 15  1  0  0  0  0
 15 16  2  0  0  0  0
 16 17  1  0  0  0  0
 16 24  1  0  0  0  0
 17 18  1  0  0  0  0
 18 19  2  0  0  0  0
 18 20  1  0  0  0  0
 18 22  1  0  0  0  0
 20 21  1  0  0  0  0
 22 23  1  0  0  0  0
 24 25  2  0  0  0  0
 26 27  2  0  0  0  0
M  END
$$$$
Ammonium nitrate
 OpenBabel03171423152D

  5  3  0  0  0  0  0  0  0  0999 V2000
    0.0000    0.0000    0.0000 N   0  3  0  0  0  0  0  0  0  0  0  0
    3.2411    0.7145    0.0000 O   0  5  0  0  0  0  0  0  0  0  0  0
    2.8286   -0.0000    0.0000 N   0  3  0  0  0  0  0  0  0  0  0  0
    3.2411   -0.7145    0.0000 O   0  5  0  0  0  0  0  0  0  0  0  0
    2.0036   -0.0000    0.0000 O   0  0  0  0  0  0  0  0  0  0  0  0
  2  3  1  0  0  0  0
  3  4  1  0  0  0  0
  3  5  2  0  0  0  0
M  CHG  4   1   1   2  -1   3   1   4  -1
M  END
$$$$
Acephate
 OpenBabel03171423152D

 10  9  0  0  0  0  0  0  0  0999 V2000
    1.9520   -0.5230    0.0000 C   0  0  0  0  0  0  0  0  0  0  0  0
    1.9520    0.3020    0.0000 O   0  0  0  0  0  0  0  0  0  0  0  0
    1.2375    0.7145    0.0000 P   0  0  3  0  0  0  0  0  0  0  0  0
    1.6500    1.4289    0.0000 O   0  0  0  0  0  0  0  0  0  0  0  0
    0.5230    1.1270    0.0000 N   0  0  0  0  0  0  0  0  0  0  0  0
    0.5230    1.9520    0.0000 C   0  0  0  0  0  0  0  0  0  0  0  0
   -0.1914    2.3645    0.0000 C   0  0  0  0  0  0  0  0  0  0  0  0
    1.2375    2.3645    0.0000 O   0  0  0  0  0  0  0  0  0  0  0  0
    0.8250    0.0000    0.0000 S   0  0  0  0  0  0  0  0  0  0  0  0
    0.0000    0.0000    0.0000 C   0  0  0  0  0  0  0  0  0  0  0  0
  1  2  1  0  0  0  0
  2  3  1  0  0  0  0
  3  4  2  0  0  0  0
  3  5  1  0  0  0  0
  3  9  1  0  0  0  0
  5  6  1  0  0  0  0
  6  7  1  0  0  0  0
  6  8  2  0  0  0  0
  9 10  1  0  0  0  0
M  END
$$$$
Sulfone
 OpenBabel03171423152D

  3  2  0  0  0  0  0  0  0  0999 V2000
    1.6500   -0.0000    0.0000 O   0  0  0  0  0  0  0  0  0  0  0  0
    2.4750   -0.0000    0.0000 S   0  0  0  0  0  0  0  0  0  0  0  0
    3.3000    0.0000    0.0000 O   0  0  0  0  0  0  0  0  0  0  0  0
  1  2  2  0  0  0  0
  2  3  2  0  0  0  0
M  END
$$$$
Bromethalin
 OpenBabel03171423152D

 27 28  0  0  0  0  0  0  0  0999 V2000
    0.1808    0.0186    0.0000 C   0  0  0  0  0  0  0  0  0  0  0  0
   -0.5483   -0.4465    0.0000 N   0  0  0  0  0  0  0  0  0  0  0  0
   -0.6732   -1.2919    0.0000 C   0  0  0  0  0  0  0  0  0  0  0  0
    0.0109   -1.7530    0.0000 C   0  0  0  0  0  0  0  0  0  0  0  0
    0.8827   -1.7143    0.0000 Br  0  0  0  0  0  0  0  0  0  0  0  0
   -0.0464   -2.5760    0.0000 C   0  0  0  0  0  0  0  0  0  0  0  0
   -0.7877   -2.9379    0.0000 C   0  0  0  0  0  0  0  0  0  0  0  0
   -0.8450   -3.7609    0.0000 Br  0  0  0  0  0  0  0  0  0  0  0  0
   -1.4719   -2.4768    0.0000 C   0  0  0  0  0  0  0  0  0  0  0  0
   -1.0710   -1.5869    0.0000 C   0  0  0  0  0  0  0  0  0  0  0  0
   -1.7518   -1.0855    0.0000 Br  0  0  0  0  0  0  0  0  0  0  0  0
   -1.3001   -0.0078    0.0000 C   0  0  0  0  0  0  0  0  0  0  0  0
   -2.0415   -0.3697    0.0000 C   0  0  0  0  0  0  0  0  0  0  0  0
   -2.7256    0.0914    0.0000 C   0  0  0  0  0  0  0  0  0  0  0  0
   -2.6683    0.9144    0.0000 C   0  0  0  0  0  0  0  0  0  0  0  0
   -1.9269    1.2763    0.0000 C   0  0  0  0  0  0  0  0  0  0  0  0
   -1.2428    0.8152    0.0000 C   0  0  0  0  0  0  0  0  0  0  0  0
   -0.4376    1.2795    0.0000 C   0  0  0  0  0  0  0  0  0  0  0  0
    0.2845    1.7636    0.0000 F   0  0  0  0  0  0  0  0  0  0  0  0
    0.3225    0.7800    0.0000 F   0  0  0  0  0  0  0  0  0  0  0  0
   -0.5489    2.1820    0.0000 F   0  0  0  0  0  0  0  0  0  0  0  0
   -3.4324    1.4377    0.0000 N   0  3  0  0  0  0  0  0  0  0  0  0
   -4.2806    1.1764    0.0000 O   0  5  0  0  0  0  0  0  0  0  0  0
   -3.5405    2.3182    0.0000 O   0  0  0  0  0  0  0  0  0  0  0  0
   -2.5112   -1.2866    0.0000 N   0  3  0  0  0  0  0  0  0  0  0  0
   -3.2188   -1.8369    0.0000 O   0  5  0  0  0  0  0  0  0  0  0  0
   -2.0021   -1.9841    0.0000 O   0  0  0  0  0  0  0  0  0  0  0  0
  1  2  1  0  0  0  0
  2  3  1  0  0  0  0
  2 12  1  0  0  0  0
  3  4  2  0  0  0  0
  3 10  1  0  0  0  0
  4  5  1  0  0  0  0
  4  6  1  0  0  0  0
  6  7  2  0  0  0  0
  7  8  1  0  0  0  0
  7  9  1  0  0  0  0
  9 10  2  0  0  0  0
 10 11  1  0  0  0  0
 12 13  2  0  0  0  0
 12 17  1  0  0  0  0
 13 14  1  0  0  0  0
 13 25  1  0  0  0  0
 14 15  2  0  0  0  0
 15 16  1  0  0  0  0
 15 22  1  0  0  0  0
 16 17  2  0  0  0  0
 17 18  1  0  0  0  0
 18 19  1  0  0  0  0
 18 20  1  0  0  0  0
 18 21  1  0  0  0  0
 22 23  1  0  0  0  0
 22 24  2  0  0  0  0
 25 26  1  0  0  0  0
 25 27  2  0  0  0  0
M  CHG  4  22   1  23  -1  25   1  26  -1
M  END
$$$$
quinclorac
 OpenBabel03171423152D

 15 16  0  0  0  0  0  0  0  0999 V2000
    0.7145    1.2375    0.0000 O   0  0  0  0  0  0  0  0  0  0  0  0
    1.4289    0.8250    0.0000 C   0  0  0  0  0  0  0  0  0  0  0  0
    2.1434    1.2375    0.0000 O   0  0  0  0  0  0  0  0  0  0  0  0
    1.4289    0.0000    0.0000 C   0  0  0  0  0  0  0  0  0  0  0  0
    2.1434   -0.4125    0.0000 C   0  0  0  0  0  0  0  0  0  0  0  0
    2.8579    0.0000    0.0000 N   0  0  0  0  0  0  0  0  0  0  0  0
    3.5724   -0.4125    0.0000 C   0  0  0  0  0  0  0  0  0  0  0  0
    3.5724   -1.2375    0.0000 C   0  0  0  0  0  0  0  0  0  0  0  0
    4.2868   -1.6500    0.0000 Cl  0  0  0  0  0  0  0  0  0  0  0  0
    2.8579   -1.6500    0.0000 C   0  0  0  0  0  0  0  0  0  0  0  0
    2.1434   -1.2375    0.0000 C   0  0  0  0  0  0  0  0  0  0  0  0
    1.4289   -1.6500    0.0000 C   0  0  0  0  0  0  0  0  0  0  0  0
    0.7145   -1.2375    0.0000 C   0  0  0  0  0  0  0  0  0  0  0  0
    0.7145   -0.4125    0.0000 C   0  0  0  0  0  0  0  0  0  0  0  0
    0.0000   -0.0000    0.0000 Cl  0  0  0  0  0  0  0  0  0  0  0  0
  1  2  1  0  0  0  0
  2  3  2  0  0  0  0
  2  4  1  0  0  0  0
  4  5  2  0  0  0  0
  4 14  1  0  0  0  0
  5  6  1  0  0  0  0
  5 11  1  0  0  0  0
  6  7  2  0  0  0  0
  7  8  1  0  0  0  0
  8  9  1  0  0  0  0
  8 10  2  0  0  0  0
 10 11  1  0  0  0  0
 11 12  2  0  0  0  0
 12 13  1  0  0  0  0
 13 14  2  0  0  0  0
 14 15  1  0  0  0  0
M  END
$$$$
Morpholine
 OpenBabel03171423152D

  6  6  0  0  0  0  0  0  0  0999 V2000
    0.7145    1.2375    0.0000 C   0  0  0  0  0  0  0  0  0  0  0  0
    1.4289    0.8250    0.0000 C   0  0  0  0  0  0  0  0  0  0  0  0
    1.4289   -0.0000    0.0000 O   0  0  0  0  0  0  0  0  0  0  0  0
    0.7145   -0.4125    0.0000 C   0  0  0  0  0  0  0  0  0  0  0  0
    0.0000    0.0000    0.0000 C   0  0  0  0  0  0  0  0  0  0  0  0
    0.0000    0.8250    0.0000 N   0  0  0  0  0  0  0  0  0  0  0  0
  1  2  1  0  0  0  0
  1  6  1  0  0  0  0
  2  3  1  0  0  0  0
  3  4  1  0  0  0  0
  4  5  1  0  0  0  0
  5  6  1  0  0  0  0
M  END
$$$$
Methoxyfenozide
 OpenBabel03171423152D

 27 28  0  0  0  0  0  0  0  0999 V2000
   -0.7145   -6.1875    0.0000 C   0  0  0  0  0  0  0  0  0  0  0  0
    0.0000   -5.7750    0.0000 O   0  0  0  0  0  0  0  0  0  0  0  0
    0.0000   -4.9500    0.0000 C   0  0  0  0  0  0  0  0  0  0  0  0
   -0.7145   -4.5375    0.0000 C   0  0  0  0  0  0  0  0  0  0  0  0
   -0.7145   -3.7125    0.0000 C   0  0  0  0  0  0  0  0  0  0  0  0
    0.0000   -3.3000    0.0000 C   0  0  0  0  0  0  0  0  0  0  0  0
    0.7145   -3.7125    0.0000 C   0  0  0  0  0  0  0  0  0  0  0  0
    1.4289   -3.3000    0.0000 C   0  0  0  0  0  0  0  0  0  0  0  0
    2.1434   -3.7125    0.0000 O   0  0  0  0  0  0  0  0  0  0  0  0
    1.4289   -2.4750    0.0000 N   0  0  0  0  0  0  0  0  0  0  0  0
    2.1434   -2.0625    0.0000 N   0  0  0  0  0  0  0  0  0  0  0  0
    2.1434   -1.2375    0.0000 C   0  0  0  0  0  0  0  0  0  0  0  0
    1.4289   -0.8250    0.0000 O   0  0  0  0  0  0  0  0  0  0  0  0
    2.8579   -0.8250    0.0000 C   0  0  0  0  0  0  0  0  0  0  0  0
    2.8579    0.0000    0.0000 C   0  0  0  0  0  0  0  0  0  0  0  0
    3.5724    0.4125    0.0000 C   0  0  0  0  0  0  0  0  0  0  0  0
    3.5724    1.2375    0.0000 C   0  0  0  0  0  0  0  0  0  0  0  0
    4.2868    0.0000    0.0000 C   0  0  0  0  0  0  0  0  0  0  0  0
    4.2868   -0.8250    0.0000 C   0  0  0  0  0  0  0  0  0  0  0  0
    5.0013   -1.2375    0.0000 C   0  0  0  0  0  0  0  0  0  0  0  0
    3.5724   -1.2375    0.0000 C   0  0  0  0  0  0  0  0  0  0  0  0
    2.8579   -2.4750    0.0000 C   0  0  0  0  0  0  0  0  0  0  0  0
    2.4454   -3.1895    0.0000 C   0  0  0  0  0  0  0  0  0  0  0  0
    3.2704   -1.7605    0.0000 C   0  0  0  0  0  0  0  0  0  0  0  0
    3.5724   -2.8875    0.0000 C   0  0  0  0  0  0  0  0  0  0  0  0
    0.7145   -4.5375    0.0000 C   0  0  0  0  0  0  0  0  0  0  0  0
    1.4289   -4.9500    0.0000 C   0  0  0  0  0  0  0  0  0  0  0  0
  1  2  1  0  0  0  0
  2  3  1  0  0  0  0
  3  4  2  0  0  0  0
  3 26  1  0  0  0  0
  4  5  1  0  0  0  0
  5  6  2  0  0  0  0
  6  7  1  0  0  0  0
  7  8  1  0  0  0  0
  7 26  2  0  0  0  0
  8  9  2  0  0  0  0
  8 10  1  0  0  0  0
 10 11  1  0  0  0  0
 11 12  1  0  0  0  0
 11 22  1  0  0  0  0
 12 13  2  0  0  0  0
 12 14  1  0  0  0  0
 14 15  2  0  0  0  0
 14 21  1  0  0  0  0
 15 16  1  0  0  0  0
 16 17  1  0  0  0  0
 16 18  2  0  0  0  0
 18 19  1  0  0  0  0
 19 20  1  0  0  0  0
 19 21  2  0  0  0  0
 22 23  1  0  0  0  0
 22 24  1  0  0  0  0
 22 25  1  0  0  0  0
 26 27  1  0  0  0  0
M  END
>  <type>
common

$$$$
Epoxyethane -
 OpenBabel03171423152D

  3  3  0  0  0  0  0  0  0  0999 V2000
    0.2382    0.8888    0.0000 C   0  0  0  0  0  0  0  0  0  0  0  0
    0.6507    0.1743    0.0000 C   0  0  0  0  0  0  0  0  0  0  0  0
   -0.1743    0.1743    0.0000 O   0  0  0  0  0  0  0  0  0  0  0  0
  1  2  1  0  0  0  0
  1  3  1  0  0  0  0
  2  3  1  0  0  0  0
M  END
$$$$
InChI=1S/C27H44O/c1-19(2)8-6-9-21(4)25-15-16-26-22(10-7-17-27(25,26)5)12-13-23-18-24(28)14-11-20(23)3/h12-13,19,21,24-26,28H,3,6-11,14-18H2,1-2,4-5H3/b22-12+,23-13-/t21-,24+,25-,26?,27-/m1/s1
 OpenBabel03171423152D

 34 36  0  0  0  0  0  0  0  0999 V2000
   -0.9747    5.8655    0.0000 C   0  0  0  0  0  0  0  0  0  0  0  0
   -0.2602    4.6280    0.0000 C   0  0  0  0  0  0  0  0  0  0  0  0
    6.2739    7.9823    0.0000 C   0  0  0  0  0  0  0  0  0  0  0  0
    2.5977    4.6280    0.0000 C   0  0  0  0  0  0  0  0  0  0  0  0
    3.4527    4.9779    0.0000 C   0  0  0  0  0  0  0  0  0  0  0  0
    1.1687    5.4530    0.0000 C   0  0  0  0  0  0  0  0  0  0  0  0
    5.1277    4.5738    0.0000 C   0  0  0  0  0  0  0  0  0  0  0  0
    0.4542    5.8655    0.0000 C   0  0  0  0  0  0  0  0  0  0  0  0
    1.8832    5.8655    0.0000 C   0  0  0  0  0  0  0  0  0  0  0  0
    5.6798    5.1869    0.0000 C   0  0  0  0  0  0  0  0  0  0  0  0
    7.6329    8.4239    0.0000 C   0  0  0  0  0  0  0  0  0  0  0  0
    5.9768    6.5846    0.0000 C   0  0  0  0  0  0  0  0  0  0  0  0
    6.7838    6.4131    0.0000 C   0  0  0  0  0  0  0  0  0  0  0  0
    8.4399    8.2524    0.0000 C   0  0  0  0  0  0  0  0  0  0  0  0
    3.3984    6.6860    0.0000 C   0  0  0  0  0  0  0  0  0  0  0  0
    4.2053    6.8575    0.0000 C   0  0  0  0  0  0  0  0  0  0  0  0
    4.3207    4.7453    0.0000 C   0  0  0  0  0  0  0  0  0  0  0  0
    8.1428    6.8546    0.0000 C   0  0  0  0  0  0  0  0  0  0  0  0
   -0.2602    5.4530    0.0000 C   0  0  0  0  0  0  0  0  0  0  0  0
    7.0809    7.8108    0.0000 C   0  0  0  0  0  0  0  0  0  0  0  0
    2.5977    5.4530    0.0000 C   0  0  2  0  0  0  0  0  0  0  0  0
    5.4248    5.9715    0.0000 C   0  0  0  0  0  0  0  0  0  0  0  0
    7.3358    7.0262    0.0000 C   0  0  0  0  0  0  0  0  0  0  0  0
    8.6949    7.4677    0.0000 C   0  0  1  0  0  0  0  0  0  0  0  0
    3.3121    5.8655    0.0000 C   0  0  2  0  0  0  0  0  0  0  0  0
    4.6178    6.1430    0.0000 C   0  0  3  0  0  0  0  0  0  0  0  0
    4.0658    5.5299    0.0000 C   0  0  1  0  0  0  0  0  0  0  0  0
    9.5018    7.2962    0.0000 O   0  0  0  0  0  0  0  0  0  0  0  0
    5.7219    7.3692    0.0000 H   0  0  0  0  0  0  0  0  0  0  0  0
    7.0388    5.6285    0.0000 H   0  0  0  0  0  0  0  0  0  0  0  0
    1.8832    5.0405    0.0000 H   0  0  0  0  0  0  0  0  0  0  0  0
    9.2469    8.0808    0.0000 H   0  0  0  0  0  0  0  0  0  0  0  0
    2.6202    6.3148    0.0000 H   0  0  0  0  0  0  0  0  0  0  0  0
    5.1028    6.8105    0.0000 H   0  0  0  0  0  0  0  0  0  0  0  0
  8  6  1  0  0  0  0
  9  6  1  0  0  0  0
 10  7  1  0  0  0  0
 13 12  1  0  0  0  0
 14 11  1  0  0  0  0
 16 15  1  0  0  0  0
 17  7  1  0  0  0  0
 19  1  1  0  0  0  0
 19  2  1  0  0  0  0
 19  8  1  0  0  0  0
 20  3  2  0  0  0  0
 20 11  1  0  0  0  0
 21  4  1  0  0  0  0
 21  9  1  0  0  0  0
 21 31  1  1  0  0  0
 22 10  1  0  0  0  0
 22 12  2  0  0  0  0
 23 13  2  0  0  0  0
 23 18  1  0  0  0  0
 23 20  1  0  0  0  0
 24 14  1  0  0  0  0
 24 18  1  0  0  0  0
 24 28  1  0  0  0  0
 24 32  1  1  0  0  0
 25 15  1  0  0  0  0
 25 21  1  0  0  0  0
 25 33  1  6  0  0  0
 26 16  1  0  0  0  0
 26 22  1  0  0  0  0
 27  5  1  1  0  0  0
 27 17  1  0  0  0  0
 27 25  1  0  0  0  0
 27 26  1  0  0  0  0
 29 12  1  0  0  0  0
 30 13  1  0  0  0  0
 34 26  1  0  0  0  0
M  END
$$$$
bifenazate
 OpenBabel03171423152D

 22 23  0  0  0  0  0  0  0  0999 V2000
   -0.7145   -0.4125    0.0000 C   0  0  0  0  0  0  0  0  0  0  0  0
   -0.7145   -1.2375    0.0000 O   0  0  0  0  0  0  0  0  0  0  0  0
   -1.4289   -1.6500    0.0000 C   0  0  0  0  0  0  0  0  0  0  0  0
   -1.4289   -2.4750    0.0000 C   0  0  0  0  0  0  0  0  0  0  0  0
   -0.7145   -2.8875    0.0000 N   0  0  0  0  0  0  0  0  0  0  0  0
    0.0000   -2.4750    0.0000 N   0  0  0  0  0  0  0  0  0  0  0  0
    0.7145   -2.8875    0.0000 C   0  0  0  0  0  0  0  0  0  0  0  0
    0.7145   -3.7125    0.0000 O   0  0  0  0  0  0  0  0  0  0  0  0
    1.4289   -2.4750    0.0000 O   0  0  0  0  0  0  0  0  0  0  0  0
    2.1434   -2.8875    0.0000 C   0  0  0  0  0  0  0  0  0  0  0  0
    2.8579   -2.4750    0.0000 C   0  0  0  0  0  0  0  0  0  0  0  0
    2.1434   -3.7125    0.0000 C   0  0  0  0  0  0  0  0  0  0  0  0
   -2.1434   -2.8875    0.0000 C   0  0  0  0  0  0  0  0  0  0  0  0
   -2.8579   -2.4750    0.0000 C   0  0  0  0  0  0  0  0  0  0  0  0
   -2.8579   -1.6500    0.0000 C   0  0  0  0  0  0  0  0  0  0  0  0
   -2.1434   -1.2375    0.0000 C   0  0  0  0  0  0  0  0  0  0  0  0
   -3.5724   -2.8875    0.0000 C   0  0  0  0  0  0  0  0  0  0  0  0
   -3.5724   -3.7125    0.0000 C   0  0  0  0  0  0  0  0  0  0  0  0
   -4.2868   -4.1250    0.0000 C   0  0  0  0  0  0  0  0  0  0  0  0
   -5.0013   -3.7125    0.0000 C   0  0  0  0  0  0  0  0  0  0  0  0
   -5.0013   -2.8875    0.0000 C   0  0  0  0  0  0  0  0  0  0  0  0
   -4.2868   -2.4750    0.0000 C   0  0  0  0  0  0  0  0  0  0  0  0
  1  2  1  0  0  0  0
  2  3  1  0  0  0  0
  3  4  2  0  0  0  0
  3 16  1  0  0  0  0
  4  5  1  0  0  0  0
  4 13  1  0  0  0  0
  5  6  1  0  0  0  0
  6  7  1  0  0  0  0
  7  8  2  0  0  0  0
  7  9  1  0  0  0  0
  9 10  1  0  0  0  0
 10 11  1  0  0  0  0
 10 12  1  0  0  0  0
 13 14  2  0  0  0  0
 14 15  1  0  0  0  0
 14 17  1  0  0  0  0
 15 16  2  0  0  0  0
 17 18  2  0  0  0  0
 17 22  1  0  0  0  0
 18 19  1  0  0  0  0
 19 20  2  0  0  0  0
 20 21  1  0  0  0  0
 21 22  2  0  0  0  0
M  END
$$$$
1,3,5-Triazine-2,4(1H,3H)-dione, 3-cyclohexyl-6-(dimethylamino)-1-methyl-
 OpenBabel03171423152D

 18 19  0  0  0  0  0  0  0  0999 V2000
    0.0000    0.0000    0.0000 C   0  0  0  0  0  0  0  0  0  0  0  0
    0.7145   -0.4125    0.0000 N   0  0  0  0  0  0  0  0  0  0  0  0
    1.4289   -0.0000    0.0000 C   0  0  0  0  0  0  0  0  0  0  0  0
    0.7145   -1.2375    0.0000 C   0  0  0  0  0  0  0  0  0  0  0  0
    1.4289   -1.6500    0.0000 N   0  0  0  0  0  0  0  0  0  0  0  0
    1.4289   -2.4750    0.0000 C   0  0  0  0  0  0  0  0  0  0  0  0
    2.1434   -2.8875    0.0000 O   0  0  0  0  0  0  0  0  0  0  0  0
    0.7145   -2.8875    0.0000 N   0  0  0  0  0  0  0  0  0  0  0  0
    0.7145   -3.7125    0.0000 C   0  0  0  0  0  0  0  0  0  0  0  0
    1.4289   -4.1250    0.0000 C   0  0  0  0  0  0  0  0  0  0  0  0
    1.4289   -4.9500    0.0000 C   0  0  0  0  0  0  0  0  0  0  0  0
    0.7145   -5.3625    0.0000 C   0  0  0  0  0  0  0  0  0  0  0  0
   -0.0000   -4.9500    0.0000 C   0  0  0  0  0  0  0  0  0  0  0  0
    0.0000   -4.1250    0.0000 C   0  0  0  0  0  0  0  0  0  0  0  0
    0.0000   -2.4750    0.0000 C   0  0  0  0  0  0  0  0  0  0  0  0
   -0.7145   -2.8875    0.0000 O   0  0  0  0  0  0  0  0  0  0  0  0
    0.0000   -1.6500    0.0000 N   0  0  0  0  0  0  0  0  0  0  0  0
   -0.7145   -1.2375    0.0000 C   0  0  0  0  0  0  0  0  0  0  0  0
  1  2  1  0  0  0  0
  2  3  1  0  0  0  0
  2  4  1  0  0  0  0
  4  5  2  0  0  0  0
  4 17  1  0  0  0  0
  5  6  1  0  0  0  0
  6  7  2  0  0  0  0
  6  8  1  0  0  0  0
  8  9  1  0  0  0  0
  8 15  1  0  0  0  0
  9 10  1  0  0  0  0
  9 14  1  0  0  0  0
 10 11  1  0  0  0  0
 11 12  1  0  0  0  0
 12 13  1  0  0  0  0
 13 14  1  0  0  0  0
 15 16  2  0  0  0  0
 15 17  1  0  0  0  0
 17 18  1  0  0  0  0
M  END
$$$$
Iron(III) sulfate
 OpenBabel03171423152D

 17 12  0  0  0  0  0  0  0  0999 V2000
    0.0000    0.0000    0.0000 Fe  0  1  0  0  0 15  0  0  0  0  0  0
    1.1196    0.0000    0.0000 Fe  0  1  0  0  0 15  0  0  0  0  0  0
    3.9482   -0.8250    0.0000 O   0  5  0  0  0  0  0  0  0  0  0  0
    3.9482    0.0000    0.0000 S   0  0  0  0  0  0  0  0  0  0  0  0
    3.9482    0.8250    0.0000 O   0  5  0  0  0  0  0  0  0  0  0  0
    4.7732   -0.0000    0.0000 O   0  0  0  0  0  0  0  0  0  0  0  0
    3.1232    0.0000    0.0000 O   0  0  0  0  0  0  0  0  0  0  0  0
    0.0000   -4.1250    0.0000 O   0  5  0  0  0  0  0  0  0  0  0  0
    0.0000   -3.3000    0.0000 S   0  0  0  0  0  0  0  0  0  0  0  0
    0.0000   -2.4750    0.0000 O   0  5  0  0  0  0  0  0  0  0  0  0
    0.8250   -3.3000    0.0000 O   0  0  0  0  0  0  0  0  0  0  0  0
   -0.8250   -3.3000    0.0000 O   0  0  0  0  0  0  0  0  0  0  0  0
    3.6536   -4.1250    0.0000 O   0  5  0  0  0  0  0  0  0  0  0  0
    3.6536   -3.3000    0.0000 S   0  0  0  0  0  0  0  0  0  0  0  0
    3.6536   -2.4750    0.0000 O   0  5  0  0  0  0  0  0  0  0  0  0
    4.4786   -3.3000    0.0000 O   0  0  0  0  0  0  0  0  0  0  0  0
    2.8286   -3.3000    0.0000 O   0  0  0  0  0  0  0  0  0  0  0  0
  3  4  1  0  0  0  0
  4  5  1  0  0  0  0
  4  6  2  0  0  0  0
  4  7  2  0  0  0  0
  8  9  1  0  0  0  0
  9 10  1  0  0  0  0
  9 11  2  0  0  0  0
  9 12  2  0  0  0  0
 13 14  1  0  0  0  0
 14 15  1  0  0  0  0
 14 16  2  0  0  0  0
 14 17  2  0  0  0  0
M  CHG  8   1   3   2   3   3  -1   5  -1   8  -1  10  -1  13  -1  15  -1
M  END
$$$$
butanol
 OpenBabel03171423152D

  5  4  0  0  0  0  0  0  0  0999 V2000
    2.4750   -1.4289    0.0000 C   0  0  0  0  0  0  0  0  0  0  0  0
    2.0625   -0.7145    0.0000 C   0  0  0  0  0  0  0  0  0  0  0  0
    1.2375   -0.7145    0.0000 C   0  0  0  0  0  0  0  0  0  0  0  0
    0.8250    0.0000    0.0000 C   0  0  0  0  0  0  0  0  0  0  0  0
    0.0000    0.0000    0.0000 O   0  0  0  0  0  0  0  0  0  0  0  0
  1  2  1  0  0  0  0
  2  3  1  0  0  0  0
  3  4  1  0  0  0  0
  4  5  1  0  0  0  0
M  END
$$$$
norflurazon
 OpenBabel03171423152D

 20 21  0  0  0  0  0  0  0  0999 V2000
    0.0000    0.0000    0.0000 C   0  0  0  0  0  0  0  0  0  0  0  0
    0.7145   -0.4125    0.0000 N   0  0  0  0  0  0  0  0  0  0  0  0
    0.7145   -1.2375    0.0000 C   0  0  0  0  0  0  0  0  0  0  0  0
    1.4289   -1.6500    0.0000 C   0  0  0  0  0  0  0  0  0  0  0  0
    2.1434   -1.2375    0.0000 Cl  0  0  0  0  0  0  0  0  0  0  0  0
    1.4289   -2.4750    0.0000 C   0  0  0  0  0  0  0  0  0  0  0  0
    2.1434   -2.8875    0.0000 O   0  0  0  0  0  0  0  0  0  0  0  0
    0.7145   -2.8875    0.0000 N   0  0  0  0  0  0  0  0  0  0  0  0
    0.0000   -2.4750    0.0000 N   0  0  0  0  0  0  0  0  0  0  0  0
    0.0000   -1.6500    0.0000 C   0  0  0  0  0  0  0  0  0  0  0  0
    0.7145   -3.7125    0.0000 C   0  0  0  0  0  0  0  0  0  0  0  0
    1.4289   -4.1250    0.0000 C   0  0  0  0  0  0  0  0  0  0  0  0
    1.4289   -4.9500    0.0000 C   0  0  0  0  0  0  0  0  0  0  0  0
    0.7145   -5.3625    0.0000 C   0  0  0  0  0  0  0  0  0  0  0  0
   -0.0000   -4.9500    0.0000 C   0  0  0  0  0  0  0  0  0  0  0  0
    0.0000   -4.1250    0.0000 C   0  0  0  0  0  0  0  0  0  0  0  0
    2.1434   -5.3625    0.0000 C   0  0  0  0  0  0  0  0  0  0  0  0
    2.8579   -5.7750    0.0000 F   0  0  0  0  0  0  0  0  0  0  0  0
    1.7309   -6.0770    0.0000 F   0  0  0  0  0  0  0  0  0  0  0  0
    2.5559   -4.6480    0.0000 F   0  0  0  0  0  0  0  0  0  0  0  0
  1  2  1  0  0  0  0
  2  3  1  0  0  0  0
  3  4  2  0  0  0  0
  3 10  1  0  0  0  0
  4  5  1  0  0  0  0
  4  6  1  0  0  0  0
  6  7  2  0  0  0  0
  6  8  1  0  0  0  0
  8  9  1  0  0  0  0
  8 11  1  0  0  0  0
  9 10  2  0  0  0  0
 11 12  2  0  0  0  0
 11 16  1  0  0  0  0
 12 13  1  0  0  0  0
 13 14  2  0  0  0  0
 13 17  1  0  0  0  0
 14 15  1  0  0  0  0
 15 16  2  0  0  0  0
 17 18  1  0  0  0  0
 17 19  1  0  0  0  0
 17 20  1  0  0  0  0
M  END
$$$$
Bensulide
 OpenBabel03171423152D

 23 23  0  0  0  0  0  0  0  0999 V2000
   -1.4289    7.4250    0.0000 C   0  0  0  0  0  0  0  0  0  0  0  0
   -1.4289    6.6000    0.0000 C   0  0  0  0  0  0  0  0  0  0  0  0
   -2.1434    6.1875    0.0000 C   0  0  0  0  0  0  0  0  0  0  0  0
   -0.7145    6.1875    0.0000 O   0  0  0  0  0  0  0  0  0  0  0  0
   -0.7145    5.3625    0.0000 P   0  0  0  0  0  0  0  0  0  0  0  0
   -1.5395    5.3625    0.0000 S   0  0  0  0  0  0  0  0  0  0  0  0
    0.1105    5.3625    0.0000 O   0  0  0  0  0  0  0  0  0  0  0  0
    0.5230    6.0770    0.0000 C   0  0  0  0  0  0  0  0  0  0  0  0
    1.3480    6.0770    0.0000 C   0  0  0  0  0  0  0  0  0  0  0  0
    0.1105    6.7914    0.0000 C   0  0  0  0  0  0  0  0  0  0  0  0
   -0.7145    4.5375    0.0000 S   0  0  0  0  0  0  0  0  0  0  0  0
    0.0000    4.1250    0.0000 C   0  0  0  0  0  0  0  0  0  0  0  0
    0.0000    3.3000    0.0000 C   0  0  0  0  0  0  0  0  0  0  0  0
    0.7145    2.8875    0.0000 N   0  0  0  0  0  0  0  0  0  0  0  0
    0.7145    2.0625    0.0000 S   0  0  0  0  0  0  0  0  0  0  0  0
   -0.1105    2.0625    0.0000 O   0  0  0  0  0  0  0  0  0  0  0  0
    1.5395    2.0625    0.0000 O   0  0  0  0  0  0  0  0  0  0  0  0
    0.7145    1.2375    0.0000 C   0  0  0  0  0  0  0  0  0  0  0  0
    1.4289    0.8250    0.0000 C   0  0  0  0  0  0  0  0  0  0  0  0
    1.4289   -0.0000    0.0000 C   0  0  0  0  0  0  0  0  0  0  0  0
    0.7145   -0.4125    0.0000 C   0  0  0  0  0  0  0  0  0  0  0  0
    0.0000    0.0000    0.0000 C   0  0  0  0  0  0  0  0  0  0  0  0
    0.0000    0.8250    0.0000 C   0  0  0  0  0  0  0  0  0  0  0  0
  1  2  1  0  0  0  0
  2  3  1  0  0  0  0
  2  4  1  0  0  0  0
  4  5  1  0  0  0  0
  5  6  2  0  0  0  0
  5  7  1  0  0  0  0
  5 11  1  0  0  0  0
  7  8  1  0  0  0  0
  8  9  1  0  0  0  0
  8 10  1  0  0  0  0
 11 12  1  0  0  0  0
 12 13  1  0  0  0  0
 13 14  1  0  0  0  0
 14 15  1  0  0  0  0
 15 16  2  0  0  0  0
 15 17  2  0  0  0  0
 15 18  1  0  0  0  0
 18 19  2  0  0  0  0
 18 23  1  0  0  0  0
 19 20  1  0  0  0  0
 20 21  2  0  0  0  0
 21 22  1  0  0  0  0
 22 23  2  0  0  0  0
M  END
$$$$
citric acid
 OpenBabel03171423152D

 13 12  0  0  0  0  0  0  0  0999 V2000
   -0.1914   -2.3645    0.0000 O   0  0  0  0  0  0  0  0  0  0  0  0
    0.5230   -1.9520    0.0000 C   0  0  0  0  0  0  0  0  0  0  0  0
    1.2375   -2.3645    0.0000 O   0  0  0  0  0  0  0  0  0  0  0  0
    0.5230   -1.1270    0.0000 C   0  0  0  0  0  0  0  0  0  0  0  0
    1.2375   -0.7145    0.0000 C   0  0  0  0  0  0  0  0  0  0  0  0
    1.6500   -1.4289    0.0000 O   0  0  0  0  0  0  0  0  0  0  0  0
    1.9520   -0.3020    0.0000 C   0  0  0  0  0  0  0  0  0  0  0  0
    2.6664   -0.7145    0.0000 C   0  0  0  0  0  0  0  0  0  0  0  0
    3.3809   -0.3020    0.0000 O   0  0  0  0  0  0  0  0  0  0  0  0
    2.6664   -1.5395    0.0000 O   0  0  0  0  0  0  0  0  0  0  0  0
    0.8250    0.0000    0.0000 C   0  0  0  0  0  0  0  0  0  0  0  0
    1.2375    0.7145    0.0000 O   0  0  0  0  0  0  0  0  0  0  0  0
    0.0000    0.0000    0.0000 O   0  0  0  0  0  0  0  0  0  0  0  0
  1  2  1  0  0  0  0
  2  3  2  0  0  0  0
  2  4  1  0  0  0  0
  4  5  1  0  0  0  0
  5  6  1  0  0  0  0
  5  7  1  0  0  0  0
  5 11  1  0  0  0  0
  7  8  1  0  0  0  0
  8  9  1  0  0  0  0
  8 10  2  0  0  0  0
 11 12  1  0  0  0  0
 11 13  2  0  0  0  0
M  END
$$$$
trinexapac-ethyl
 OpenBabel03171423152D

 18 19  0  0  0  0  0  0  0  0999 V2000
    3.1599    7.7270    0.0000 C   0  0  0  0  0  0  0  0  0  0  0  0
    3.1599    6.9020    0.0000 C   0  0  0  0  0  0  0  0  0  0  0  0
    2.4454    6.4895    0.0000 O   0  0  0  0  0  0  0  0  0  0  0  0
    2.4454    5.6645    0.0000 C   0  0  0  0  0  0  0  0  0  0  0  0
    3.1599    5.2520    0.0000 O   0  0  0  0  0  0  0  0  0  0  0  0
    1.7309    5.2520    0.0000 C   0  0  3  0  0  0  0  0  0  0  0  0
    1.7309    4.4270    0.0000 C   0  0  0  0  0  0  0  0  0  0  0  0
    1.0164    4.0145    0.0000 C   0  0  0  0  0  0  0  0  0  0  0  0
    1.0164    3.1895    0.0000 O   0  0  0  0  0  0  0  0  0  0  0  0
    0.3020    4.4270    0.0000 C   0  0  0  0  0  0  0  0  0  0  0  0
   -0.4125    4.0145    0.0000 C   0  0  0  0  0  0  0  0  0  0  0  0
   -1.1270    4.4270    0.0000 O   0  0  0  0  0  0  0  0  0  0  0  0
   -0.4125    3.1895    0.0000 C   0  0  0  0  0  0  0  0  0  0  0  0
    0.0000    2.4750    0.0000 C   0  0  0  0  0  0  0  0  0  0  0  0
   -0.8250    2.4750    0.0000 C   0  0  0  0  0  0  0  0  0  0  0  0
    0.3020    5.2520    0.0000 C   0  0  0  0  0  0  0  0  0  0  0  0
   -0.4125    5.6645    0.0000 O   0  0  0  0  0  0  0  0  0  0  0  0
    1.0164    5.6645    0.0000 C   0  0  0  0  0  0  0  0  0  0  0  0
  1  2  1  0  0  0  0
  2  3  1  0  0  0  0
  3  4  1  0  0  0  0
  4  5  2  0  0  0  0
  4  6  1  0  0  0  0
  6  7  1  0  0  0  0
  6 18  1  0  0  0  0
  7  8  1  0  0  0  0
  8  9  2  0  0  0  0
  8 10  1  0  0  0  0
 10 11  2  0  0  0  0
 10 16  1  0  0  0  0
 11 12  1  0  0  0  0
 11 13  1  0  0  0  0
 13 14  1  0  0  0  0
 13 15  1  0  0  0  0
 14 15  1  0  0  0  0
 16 17  2  0  0  0  0
 16 18  1  0  0  0  0
M  END
$$$$
hexane
 OpenBabel03171423152D

  6  5  0  0  0  0  0  0  0  0999 V2000
   -0.1914    0.7145    0.0000 C   0  0  0  0  0  0  0  0  0  0  0  0
    0.5230    1.1270    0.0000 C   0  0  0  0  0  0  0  0  0  0  0  0
    1.2375    0.7145    0.0000 C   0  0  0  0  0  0  0  0  0  0  0  0
    1.9520    1.1270    0.0000 C   0  0  0  0  0  0  0  0  0  0  0  0
    2.6664    0.7145    0.0000 C   0  0  0  0  0  0  0  0  0  0  0  0
    3.3809    1.1270    0.0000 C   0  0  0  0  0  0  0  0  0  0  0  0
  1  2  1  0  0  0  0
  2  3  1  0  0  0  0
  3  4  1  0  0  0  0
  4  5  1  0  0  0  0
  5  6  1  0  0  0  0
M  END
$$$$
forchlorfenuron
 OpenBabel03171423152D

 17 18  0  0  0  0  0  0  0  0999 V2000
    2.8579   -1.6500    0.0000 Cl  0  0  0  0  0  0  0  0  0  0  0  0
    2.8579   -2.4750    0.0000 C   0  0  0  0  0  0  0  0  0  0  0  0
    3.5724   -2.8875    0.0000 C   0  0  0  0  0  0  0  0  0  0  0  0
    3.5724   -3.7125    0.0000 C   0  0  0  0  0  0  0  0  0  0  0  0
    4.2868   -4.1250    0.0000 N   0  0  0  0  0  0  0  0  0  0  0  0
    4.2868   -4.9500    0.0000 C   0  0  0  0  0  0  0  0  0  0  0  0
    3.5724   -5.3625    0.0000 O   0  0  0  0  0  0  0  0  0  0  0  0
    5.0013   -5.3625    0.0000 N   0  0  0  0  0  0  0  0  0  0  0  0
    5.0013   -6.1875    0.0000 C   0  0  0  0  0  0  0  0  0  0  0  0
    5.7158   -6.6000    0.0000 C   0  0  0  0  0  0  0  0  0  0  0  0
    5.7158   -7.4250    0.0000 C   0  0  0  0  0  0  0  0  0  0  0  0
    5.0013   -7.8375    0.0000 C   0  0  0  0  0  0  0  0  0  0  0  0
    4.2868   -7.4250    0.0000 C   0  0  0  0  0  0  0  0  0  0  0  0
    4.2868   -6.6000    0.0000 C   0  0  0  0  0  0  0  0  0  0  0  0
    2.8579   -4.1250    0.0000 C   0  0  0  0  0  0  0  0  0  0  0  0
    2.1434   -3.7125    0.0000 C   0  0  0  0  0  0  0  0  0  0  0  0
    2.1434   -2.8875    0.0000 N   0  0  0  0  0  0  0  0  0  0  0  0
  1  2  1  0  0  0  0
  2  3  2  0  0  0  0
  2 17  1  0  0  0  0
  3  4  1  0  0  0  0
  4  5  1  0  0  0  0
  4 15  2  0  0  0  0
  5  6  1  0  0  0  0
  6  7  2  0  0  0  0
  6  8  1  0  0  0  0
  8  9  1  0  0  0  0
  9 10  2  0  0  0  0
  9 14  1  0  0  0  0
 10 11  1  0  0  0  0
 11 12  2  0  0  0  0
 12 13  1  0  0  0  0
 13 14  2  0  0  0  0
 15 16  1  0  0  0  0
 16 17  2  0  0  0  0
M  END
$$$$
pymetrozine
 OpenBabel03171423152D

 16 17  0  0  0  0  0  0  0  0999 V2000
    1.4289   -1.6500    0.0000 C   0  0  0  0  0  0  0  0  0  0  0  0
    1.4289   -2.4750    0.0000 C   0  0  0  0  0  0  0  0  0  0  0  0
    2.1434   -2.8875    0.0000 N   0  0  0  0  0  0  0  0  0  0  0  0
    2.1434   -3.7125    0.0000 N   0  0  0  0  0  0  0  0  0  0  0  0
    1.4289   -4.1250    0.0000 C   0  0  0  0  0  0  0  0  0  0  0  0
    1.4289   -4.9500    0.0000 O   0  0  0  0  0  0  0  0  0  0  0  0
    0.7145   -3.7125    0.0000 N   0  0  0  0  0  0  0  0  0  0  0  0
    0.7145   -2.8875    0.0000 C   0  0  0  0  0  0  0  0  0  0  0  0
    0.0000   -4.1250    0.0000 N   0  0  0  0  0  0  0  0  0  0  0  0
    0.0000   -4.9500    0.0000 C   0  0  0  0  0  0  0  0  0  0  0  0
   -0.7145   -5.3625    0.0000 C   0  0  0  0  0  0  0  0  0  0  0  0
   -0.7145   -6.1875    0.0000 C   0  0  0  0  0  0  0  0  0  0  0  0
   -1.4289   -6.6000    0.0000 C   0  0  0  0  0  0  0  0  0  0  0  0
   -2.1434   -6.1875    0.0000 C   0  0  0  0  0  0  0  0  0  0  0  0
   -2.1434   -5.3625    0.0000 N   0  0  0  0  0  0  0  0  0  0  0  0
   -1.4289   -4.9500    0.0000 C   0  0  0  0  0  0  0  0  0  0  0  0
  1  2  1  0  0  0  0
  2  3  2  0  0  0  0
  2  8  1  0  0  0  0
  3  4  1  0  0  0  0
  4  5  1  0  0  0  0
  5  6  2  0  0  0  0
  5  7  1  0  0  0  0
  7  8  1  0  0  0  0
  7  9  1  0  0  0  0
  9 10  2  0  0  0  0
 10 11  1  0  0  0  0
 11 12  2  0  0  0  0
 11 16  1  0  0  0  0
 12 13  1  0  0  0  0
 13 14  2  0  0  0  0
 14 15  1  0  0  0  0
 15 16  2  0  0  0  0
M  END
$$$$
2-hydroxyethoxyacetaldehyde
 OpenBabel03171423152D

  7  6  0  0  0  0  0  0  0  0999 V2000
   -0.1914    0.7145    0.0000 C   0  0  0  0  0  0  0  0  0  0  0  0
    0.5230    1.1270    0.0000 C   0  0  0  0  0  0  0  0  0  0  0  0
    0.5230    1.9520    0.0000 O   0  0  0  0  0  0  0  0  0  0  0  0
    1.2375    0.7145    0.0000 O   0  0  0  0  0  0  0  0  0  0  0  0
    1.9520    1.1270    0.0000 C   0  0  0  0  0  0  0  0  0  0  0  0
    2.6664    0.7145    0.0000 C   0  0  0  0  0  0  0  0  0  0  0  0
    3.3809    1.1270    0.0000 O   0  0  0  0  0  0  0  0  0  0  0  0
  1  2  1  0  0  0  0
  2  3  2  0  0  0  0
  2  4  1  0  0  0  0
  4  5  1  0  0  0  0
  5  6  1  0  0  0  0
  6  7  1  0  0  0  0
M  END
$$$$
Diisooctyl phthalate
 OpenBabel03171423152D

 28 28  0  0  0  0  0  0  0  0999 V2000
   -4.3377   -2.1730    0.0000 C   0  0  0  0  0  0  0  0  0  0  0  0
   -3.7976   -1.5493    0.0000 C   0  0  0  0  0  0  0  0  0  0  0  0
   -4.0676   -0.7698    0.0000 C   0  0  0  0  0  0  0  0  0  0  0  0
   -2.9874   -1.7052    0.0000 C   0  0  0  0  0  0  0  0  0  0  0  0
   -2.4473   -1.0816    0.0000 C   0  0  0  0  0  0  0  0  0  0  0  0
   -1.6372   -1.2375    0.0000 C   0  0  0  0  0  0  0  0  0  0  0  0
   -1.0971   -0.6139    0.0000 C   0  0  0  0  0  0  0  0  0  0  0  0
   -0.2870   -0.7698    0.0000 C   0  0  0  0  0  0  0  0  0  0  0  0
    0.2531   -0.1461    0.0000 O   0  0  0  0  0  0  0  0  0  0  0  0
    1.0632   -0.3020    0.0000 C   0  0  0  0  0  0  0  0  0  0  0  0
    1.3333   -1.0816    0.0000 O   0  0  0  0  0  0  0  0  0  0  0  0
    1.6033    0.3216    0.0000 C   0  0  0  0  0  0  0  0  0  0  0  0
    1.3333    1.1012    0.0000 C   0  0  0  0  0  0  0  0  0  0  0  0
    1.8734    1.7248    0.0000 C   0  0  0  0  0  0  0  0  0  0  0  0
    2.6835    1.5689    0.0000 C   0  0  0  0  0  0  0  0  0  0  0  0
    2.9535    0.7893    0.0000 C   0  0  0  0  0  0  0  0  0  0  0  0
    2.4135    0.1657    0.0000 C   0  0  0  0  0  0  0  0  0  0  0  0
    2.6835   -0.6139    0.0000 C   0  0  0  0  0  0  0  0  0  0  0  0
    3.4936   -0.7698    0.0000 O   0  0  0  0  0  0  0  0  0  0  0  0
    2.1434   -1.2375    0.0000 O   0  0  0  0  0  0  0  0  0  0  0  0
    2.4135   -2.0171    0.0000 C   0  0  0  0  0  0  0  0  0  0  0  0
    3.2236   -2.1730    0.0000 C   0  0  0  0  0  0  0  0  0  0  0  0
    3.7637   -1.5493    0.0000 C   0  0  0  0  0  0  0  0  0  0  0  0
    4.5738   -1.7052    0.0000 C   0  0  0  0  0  0  0  0  0  0  0  0
    5.1139   -1.0816    0.0000 C   0  0  0  0  0  0  0  0  0  0  0  0
    5.9240   -1.2375    0.0000 C   0  0  0  0  0  0  0  0  0  0  0  0
    6.4641   -0.6139    0.0000 C   0  0  0  0  0  0  0  0  0  0  0  0
    6.1941   -2.0171    0.0000 C   0  0  0  0  0  0  0  0  0  0  0  0
  1  2  1  0  0  0  0
  2  3  1  0  0  0  0
  2  4  1  0  0  0  0
  4  5  1  0  0  0  0
  5  6  1  0  0  0  0
  6  7  1  0  0  0  0
  7  8  1  0  0  0  0
  8  9  1  0  0  0  0
  9 10  1  0  0  0  0
 10 11  2  0  0  0  0
 10 12  1  0  0  0  0
 12 13  2  0  0  0  0
 12 17  1  0  0  0  0
 13 14  1  0  0  0  0
 14 15  2  0  0  0  0
 15 16  1  0  0  0  0
 16 17  2  0  0  0  0
 17 18  1  0  0  0  0
 18 19  2  0  0  0  0
 18 20  1  0  0  0  0
 20 21  1  0  0  0  0
 21 22  1  0  0  0  0
 22 23  1  0  0  0  0
 23 24  1  0  0  0  0
 24 25  1  0  0  0  0
 25 26  1  0  0  0  0
 26 27  1  0  0  0  0
 26 28  1  0  0  0  0
M  END
$$$$
5-heptyloxolan-2-one
 OpenBabel03171423152D

 13 13  0  0  0  0  0  0  0  0999 V2000
   -0.9836   -3.8350    0.0000 C   0  0  0  0  0  0  0  0  0  0  0  0
   -0.2691   -3.4225    0.0000 C   0  0  0  0  0  0  0  0  0  0  0  0
    0.4454   -3.8350    0.0000 C   0  0  0  0  0  0  0  0  0  0  0  0
    1.1598   -3.4225    0.0000 C   0  0  0  0  0  0  0  0  0  0  0  0
    1.8743   -3.8350    0.0000 C   0  0  0  0  0  0  0  0  0  0  0  0
    2.5888   -3.4225    0.0000 C   0  0  0  0  0  0  0  0  0  0  0  0
    3.3033   -3.8350    0.0000 C   0  0  0  0  0  0  0  0  0  0  0  0
    4.0177   -3.4225    0.0000 C   0  0  3  0  0  0  0  0  0  0  0  0
    4.1040   -2.6020    0.0000 C   0  0  0  0  0  0  0  0  0  0  0  0
    4.9109   -2.4305    0.0000 C   0  0  0  0  0  0  0  0  0  0  0  0
    5.3234   -3.1450    0.0000 C   0  0  0  0  0  0  0  0  0  0  0  0
    6.1439   -3.2312    0.0000 O   0  0  0  0  0  0  0  0  0  0  0  0
    4.7714   -3.7581    0.0000 O   0  0  0  0  0  0  0  0  0  0  0  0
  1  2  1  0  0  0  0
  2  3  1  0  0  0  0
  3  4  1  0  0  0  0
  4  5  1  0  0  0  0
  5  6  1  0  0  0  0
  6  7  1  0  0  0  0
  7  8  1  0  0  0  0
  8  9  1  0  0  0  0
  8 13  1  0  0  0  0
  9 10  1  0  0  0  0
 10 11  1  0  0  0  0
 11 12  2  0  0  0  0
 11 13  1  0  0  0  0
M  END
$$$$
sodium nitrate
 OpenBabel03171423152D

  5  3  0  0  0  0  0  0  0  0999 V2000
    0.0000    0.0000    0.0000 Na  0  3  0  0  0 15  0  0  0  0  0  0
    3.2411    0.7145    0.0000 O   0  5  0  0  0  0  0  0  0  0  0  0
    2.8286   -0.0000    0.0000 N   0  3  0  0  0  0  0  0  0  0  0  0
    3.2411   -0.7145    0.0000 O   0  5  0  0  0  0  0  0  0  0  0  0
    2.0036   -0.0000    0.0000 O   0  0  0  0  0  0  0  0  0  0  0  0
  2  3  1  0  0  0  0
  3  4  1  0  0  0  0
  3  5  2  0  0  0  0
M  CHG  4   1   1   2  -1   3   1   4  -1
M  END
$$$$
2-Anilino-4-methyl-6-cyclopropyl-pyrimidin
 OpenBabel03171423152D

 17 19  0  0  0  0  0  0  0  0999 V2000
    3.5724   -1.2375    0.0000 C   0  0  0  0  0  0  0  0  0  0  0  0
    2.8579   -1.6500    0.0000 C   0  0  0  0  0  0  0  0  0  0  0  0
    2.8579   -2.4750    0.0000 C   0  0  0  0  0  0  0  0  0  0  0  0
    2.1434   -2.8875    0.0000 C   0  0  0  0  0  0  0  0  0  0  0  0
    1.4289   -2.4750    0.0000 N   0  0  0  0  0  0  0  0  0  0  0  0
    1.4289   -1.6500    0.0000 C   0  0  0  0  0  0  0  0  0  0  0  0
    0.7145   -1.2375    0.0000 N   0  0  0  0  0  0  0  0  0  0  0  0
    0.7145   -0.4125    0.0000 C   0  0  0  0  0  0  0  0  0  0  0  0
    0.0000    0.0000    0.0000 C   0  0  0  0  0  0  0  0  0  0  0  0
    0.0000    0.8250    0.0000 C   0  0  0  0  0  0  0  0  0  0  0  0
    0.7145    1.2375    0.0000 C   0  0  0  0  0  0  0  0  0  0  0  0
    1.4289    0.8250    0.0000 C   0  0  0  0  0  0  0  0  0  0  0  0
    1.4289    0.0000    0.0000 C   0  0  0  0  0  0  0  0  0  0  0  0
    2.1434   -1.2375    0.0000 N   0  0  0  0  0  0  0  0  0  0  0  0
    2.1434   -3.7125    0.0000 C   0  0  0  0  0  0  0  0  0  0  0  0
    2.5559   -4.4270    0.0000 C   0  0  0  0  0  0  0  0  0  0  0  0
    1.7309   -4.4270    0.0000 C   0  0  0  0  0  0  0  0  0  0  0  0
  1  2  1  0  0  0  0
  2  3  2  0  0  0  0
  2 14  1  0  0  0  0
  3  4  1  0  0  0  0
  4  5  2  0  0  0  0
  4 15  1  0  0  0  0
  5  6  1  0  0  0  0
  6  7  1  0  0  0  0
  6 14  2  0  0  0  0
  7  8  1  0  0  0  0
  8  9  2  0  0  0  0
  8 13  1  0  0  0  0
  9 10  1  0  0  0  0
 10 11  2  0  0  0  0
 11 12  1  0  0  0  0
 12 13  2  0  0  0  0
 15 16  1  0  0  0  0
 15 17  1  0  0  0  0
 16 17  1  0  0  0  0
M  END
$$$$
?-linalool
 OpenBabel03171423152D

 11 10  0  0  0  0  0  0  0  0999 V2000
    1.2375    0.7145    0.0000 C   0  0  0  0  0  0  0  0  0  0  0  0
    0.8250    0.0000    0.0000 C   0  0  0  0  0  0  0  0  0  0  0  0
    1.2375   -0.7145    0.0000 C   0  0  0  0  0  0  0  0  0  0  0  0
    0.0000    0.0000    0.0000 C   0  0  0  0  0  0  0  0  0  0  0  0
   -0.4125   -0.7145    0.0000 C   0  0  0  0  0  0  0  0  0  0  0  0
    0.0000   -1.4289    0.0000 C   0  0  0  0  0  0  0  0  0  0  0  0
   -0.4125   -2.1434    0.0000 C   0  0  3  0  0  0  0  0  0  0  0  0
   -1.1270   -1.7309    0.0000 C   0  0  0  0  0  0  0  0  0  0  0  0
    0.3020   -2.5559    0.0000 O   0  0  0  0  0  0  0  0  0  0  0  0
   -0.8250   -2.8579    0.0000 C   0  0  0  0  0  0  0  0  0  0  0  0
   -0.4125   -3.5724    0.0000 C   0  0  0  0  0  0  0  0  0  0  0  0
  1  2  1  0  0  0  0
  2  3  1  0  0  0  0
  2  4  2  0  0  0  0
  4  5  1  0  0  0  0
  5  6  1  0  0  0  0
  6  7  1  0  0  0  0
  7  8  1  0  0  0  0
  7  9  1  0  0  0  0
  7 10  1  0  0  0  0
 10 11  2  0  0  0  0
M  END
$$$$
4H-1,3,5-Oxadiazin-4-imine, 3-(2-chloro-5-thiazolyl)methyltetrahydro-5-methyl-N-nitro-
 OpenBabel03171423152D

 18 19  0  0  0  0  0  0  0  0999 V2000
    3.5724    6.7661    0.0000 C   0  0  0  0  0  0  0  0  0  0  0  0
    3.5724    5.9411    0.0000 N   0  0  0  0  0  0  0  0  0  0  0  0
    4.2868    5.5286    0.0000 C   0  0  0  0  0  0  0  0  0  0  0  0
    4.2868    4.7036    0.0000 O   0  0  0  0  0  0  0  0  0  0  0  0
    3.5724    4.2911    0.0000 C   0  0  0  0  0  0  0  0  0  0  0  0
    2.8579    4.7036    0.0000 N   0  0  0  0  0  0  0  0  0  0  0  0
    2.1434    4.2911    0.0000 C   0  0  0  0  0  0  0  0  0  0  0  0
    2.1434    3.4661    0.0000 C   0  0  0  0  0  0  0  0  0  0  0  0
    2.8109    2.9812    0.0000 C   0  0  0  0  0  0  0  0  0  0  0  0
    2.5559    2.1965    0.0000 N   0  0  0  0  0  0  0  0  0  0  0  0
    1.7309    2.1965    0.0000 C   0  0  0  0  0  0  0  0  0  0  0  0
    1.2460    1.5291    0.0000 Cl  0  0  0  0  0  0  0  0  0  0  0  0
    1.4760    2.9812    0.0000 S   0  0  0  0  0  0  0  0  0  0  0  0
    2.8579    5.5286    0.0000 C   0  0  0  0  0  0  0  0  0  0  0  0
    2.1434    5.9411    0.0000 N   0  0  0  0  0  0  0  0  0  0  0  0
    1.4289    5.5286    0.0000 N   0  3  0  0  0  0  0  0  0  0  0  0
    1.4289    4.7036    0.0000 O   0  5  0  0  0  0  0  0  0  0  0  0
    0.7145    5.9411    0.0000 O   0  0  0  0  0  0  0  0  0  0  0  0
  1  2  1  0  0  0  0
  2  3  1  0  0  0  0
  2 14  1  0  0  0  0
  3  4  1  0  0  0  0
  4  5  1  0  0  0  0
  5  6  1  0  0  0  0
  6  7  1  0  0  0  0
  6 14  1  0  0  0  0
  7  8  1  0  0  0  0
  8  9  2  0  0  0  0
  8 13  1  0  0  0  0
  9 10  1  0  0  0  0
 10 11  2  0  0  0  0
 11 12  1  0  0  0  0
 11 13  1  0  0  0  0
 14 15  2  3  0  0  0
 15 16  1  0  0  0  0
 16 17  1  0  0  0  0
 16 18  2  0  0  0  0
M  CHG  2  16   1  17  -1
M  END
$$$$
Ferrous sulfate
 OpenBabel03171423152D

  6  4  0  0  0  0  0  0  0  0999 V2000
    0.0000    0.0000    0.0000 Fe  0  0  0  0  0 15  0  0  0  0  0  0
    2.8286   -0.8250    0.0000 O   0  0  0  0  0  0  0  0  0  0  0  0
    2.8286    0.0000    0.0000 S   0  0  0  0  0  0  0  0  0  0  0  0
    2.8286    0.8250    0.0000 O   0  0  0  0  0  0  0  0  0  0  0  0
    3.6536   -0.0000    0.0000 O   0  0  0  0  0  0  0  0  0  0  0  0
    2.0036    0.0000    0.0000 O   0  0  0  0  0  0  0  0  0  0  0  0
  2  3  1  0  0  0  0
  3  4  1  0  0  0  0
  3  5  2  0  0  0  0
  3  6  2  0  0  0  0
M  END
$$$$
4-amino-3,6-dichloropyridine-2-carboxylic acid
 OpenBabel03171423152D

 12 12  0  0  0  0  0  0  0  0999 V2000
    0.7145    2.0625    0.0000 N   0  0  0  0  0  0  0  0  0  0  0  0
    0.7145    1.2375    0.0000 C   0  0  0  0  0  0  0  0  0  0  0  0
    1.4289    0.8250    0.0000 C   0  0  0  0  0  0  0  0  0  0  0  0
    2.1434    1.2375    0.0000 Cl  0  0  0  0  0  0  0  0  0  0  0  0
    1.4289   -0.0000    0.0000 C   0  0  0  0  0  0  0  0  0  0  0  0
    0.7145   -0.4125    0.0000 N   0  0  0  0  0  0  0  0  0  0  0  0
    0.0000    0.0000    0.0000 C   0  0  0  0  0  0  0  0  0  0  0  0
   -0.7145   -0.4125    0.0000 Cl  0  0  0  0  0  0  0  0  0  0  0  0
    0.0000    0.8250    0.0000 C   0  0  0  0  0  0  0  0  0  0  0  0
    2.1434   -0.4125    0.0000 C   0  0  0  0  0  0  0  0  0  0  0  0
    2.8579   -0.0000    0.0000 O   0  0  0  0  0  0  0  0  0  0  0  0
    2.1434   -1.2375    0.0000 O   0  0  0  0  0  0  0  0  0  0  0  0
  1  2  1  0  0  0  0
  2  3  2  0  0  0  0
  2  9  1  0  0  0  0
  3  4  1  0  0  0  0
  3  5  1  0  0  0  0
  5  6  2  0  0  0  0
  5 10  1  0  0  0  0
  6  7  1  0  0  0  0
  7  8  1  0  0  0  0
  7  9  2  0  0  0  0
 10 11  1  0  0  0  0
 10 12  2  0  0  0  0
M  END
$$$$
prometon
 OpenBabel03171423152D

 16 16  0  0  0  0  0  0  0  0999 V2000
    0.0000    2.4750    0.0000 C   0  0  0  0  0  0  0  0  0  0  0  0
    0.7145    2.0625    0.0000 O   0  0  0  0  0  0  0  0  0  0  0  0
    0.7145    1.2375    0.0000 C   0  0  0  0  0  0  0  0  0  0  0  0
    1.4289    0.8250    0.0000 N   0  0  0  0  0  0  0  0  0  0  0  0
    1.4289   -0.0000    0.0000 C   0  0  0  0  0  0  0  0  0  0  0  0
    2.1434   -0.4125    0.0000 N   0  0  0  0  0  0  0  0  0  0  0  0
    2.8579   -0.0000    0.0000 C   0  0  0  0  0  0  0  0  0  0  0  0
    3.5724   -0.4125    0.0000 C   0  0  0  0  0  0  0  0  0  0  0  0
    2.8579    0.8250    0.0000 C   0  0  0  0  0  0  0  0  0  0  0  0
    0.7145   -0.4125    0.0000 N   0  0  0  0  0  0  0  0  0  0  0  0
    0.0000    0.0000    0.0000 C   0  0  0  0  0  0  0  0  0  0  0  0
   -0.7145   -0.4125    0.0000 N   0  0  0  0  0  0  0  0  0  0  0  0
   -1.4289    0.0000    0.0000 C   0  0  0  0  0  0  0  0  0  0  0  0
   -2.1434   -0.4125    0.0000 C   0  0  0  0  0  0  0  0  0  0  0  0
   -1.4289    0.8250    0.0000 C   0  0  0  0  0  0  0  0  0  0  0  0
    0.0000    0.8250    0.0000 N   0  0  0  0  0  0  0  0  0  0  0  0
  1  2  1  0  0  0  0
  2  3  1  0  0  0  0
  3  4  2  0  0  0  0
  3 16  1  0  0  0  0
  4  5  1  0  0  0  0
  5  6  1  0  0  0  0
  5 10  2  0  0  0  0
  6  7  1  0  0  0  0
  7  8  1  0  0  0  0
  7  9  1  0  0  0  0
 10 11  1  0  0  0  0
 11 12  1  0  0  0  0
 11 16  2  0  0  0  0
 12 13  1  0  0  0  0
 13 14  1  0  0  0  0
 13 15  1  0  0  0  0
M  END
$$$$
clomazone
 OpenBabel03171423152D

 16 17  0  0  0  0  0  0  0  0999 V2000
    1.4847   -0.6860    0.0000 C   0  0  0  0  0  0  0  0  0  0  0  0
    2.0367   -1.2991    0.0000 C   0  0  0  0  0  0  0  0  0  0  0  0
    2.5887   -0.6860    0.0000 C   0  0  0  0  0  0  0  0  0  0  0  0
    1.3693   -1.7840    0.0000 C   0  0  0  0  0  0  0  0  0  0  0  0
    1.6242   -2.5687    0.0000 O   0  0  0  0  0  0  0  0  0  0  0  0
    2.4492   -2.5687    0.0000 N   0  0  0  0  0  0  0  0  0  0  0  0
    2.9341   -3.2361    0.0000 C   0  0  0  0  0  0  0  0  0  0  0  0
    2.5986   -3.9898    0.0000 C   0  0  0  0  0  0  0  0  0  0  0  0
    3.0835   -4.6572    0.0000 C   0  0  0  0  0  0  0  0  0  0  0  0
    2.7479   -5.4109    0.0000 C   0  0  0  0  0  0  0  0  0  0  0  0
    1.9275   -5.4971    0.0000 C   0  0  0  0  0  0  0  0  0  0  0  0
    1.4425   -4.8297    0.0000 C   0  0  0  0  0  0  0  0  0  0  0  0
    1.7781   -4.0760    0.0000 C   0  0  0  0  0  0  0  0  0  0  0  0
    1.2932   -3.4086    0.0000 Cl  0  0  0  0  0  0  0  0  0  0  0  0
    2.7041   -1.7840    0.0000 C   0  0  0  0  0  0  0  0  0  0  0  0
    3.4888   -1.5291    0.0000 O   0  0  0  0  0  0  0  0  0  0  0  0
  1  2  1  0  0  0  0
  2  3  1  0  0  0  0
  2  4  1  0  0  0  0
  2 15  1  0  0  0  0
  4  5  1  0  0  0  0
  5  6  1  0  0  0  0
  6  7  1  0  0  0  0
  6 15  1  0  0  0  0
  7  8  1  0  0  0  0
  8  9  2  0  0  0  0
  8 13  1  0  0  0  0
  9 10  1  0  0  0  0
 10 11  2  0  0  0  0
 11 12  1  0  0  0  0
 12 13  2  0  0  0  0
 13 14  1  0  0  0  0
 15 16  2  0  0  0  0
M  END
$$$$
Amine
 OpenBabel03171423152D

  1  0  0  0  0  0  0  0  0  0999 V2000
    0.0000    0.0000    0.0000 N   0  0  0  0  0  0  0  0  0  0  0  0
M  END
$$$$
propionic acid
 OpenBabel03171423152D

  5  4  0  0  0  0  0  0  0  0999 V2000
    0.8250    1.4289    0.0000 C   0  0  0  0  0  0  0  0  0  0  0  0
    1.2375    0.7145    0.0000 C   0  0  0  0  0  0  0  0  0  0  0  0
    0.8250    0.0000    0.0000 C   0  0  0  0  0  0  0  0  0  0  0  0
    1.2375   -0.7145    0.0000 O   0  0  0  0  0  0  0  0  0  0  0  0
    0.0000    0.0000    0.0000 O   0  0  0  0  0  0  0  0  0  0  0  0
  1  2  1  0  0  0  0
  2  3  1  0  0  0  0
  3  4  1  0  0  0  0
  3  5  2  0  0  0  0
M  END
$$$$
2,6-dichloro-4-nitroaniline
 OpenBabel03171423152D

 12 12  0  0  0  0  0  0  0  0999 V2000
    0.7145    2.0625    0.0000 N   0  0  0  0  0  0  0  0  0  0  0  0
    0.7145    1.2375    0.0000 C   0  0  0  0  0  0  0  0  0  0  0  0
    1.4289    0.8250    0.0000 C   0  0  0  0  0  0  0  0  0  0  0  0
    2.1434    1.2375    0.0000 Cl  0  0  0  0  0  0  0  0  0  0  0  0
    1.4289   -0.0000    0.0000 C   0  0  0  0  0  0  0  0  0  0  0  0
    0.7145   -0.4125    0.0000 C   0  0  0  0  0  0  0  0  0  0  0  0
    0.0000    0.0000    0.0000 C   0  0  0  0  0  0  0  0  0  0  0  0
    0.0000    0.8250    0.0000 C   0  0  0  0  0  0  0  0  0  0  0  0
   -0.7145    1.2375    0.0000 Cl  0  0  0  0  0  0  0  0  0  0  0  0
    0.7145   -1.2375    0.0000 N   0  3  0  0  0  0  0  0  0  0  0  0
    1.4289   -1.6500    0.0000 O   0  5  0  0  0  0  0  0  0  0  0  0
   -0.0000   -1.6500    0.0000 O   0  0  0  0  0  0  0  0  0  0  0  0
  1  2  1  0  0  0  0
  2  3  2  0  0  0  0
  2  8  1  0  0  0  0
  3  4  1  0  0  0  0
  3  5  1  0  0  0  0
  5  6  2  0  0  0  0
  6  7  1  0  0  0  0
  6 10  1  0  0  0  0
  7  8  2  0  0  0  0
  8  9  1  0  0  0  0
 10 11  1  0  0  0  0
 10 12  2  0  0  0  0
M  CHG  2  10   1  11  -1
M  END
$$$$
dimethyl ammonium carbonate
 OpenBabel03171423152D

  7  5  0  0  0  0  0  0  0  0999 V2000
    0.0000    0.0000    0.0000 N   0  3  0  0  0  0  0  0  0  0  0  0
    4.7143   -0.7145    0.0000 C   0  0  0  0  0  0  0  0  0  0  0  0
    4.3018   -0.0000    0.0000 O   0  0  0  0  0  0  0  0  0  0  0  0
    3.4768    0.0000    0.0000 C   0  0  0  0  0  0  0  0  0  0  0  0
    3.0643   -0.7145    0.0000 O   0  0  0  0  0  0  0  0  0  0  0  0
    3.0643    0.7145    0.0000 O   0  0  0  0  0  0  0  0  0  0  0  0
    2.2393    0.7145    0.0000 C   0  0  0  0  0  0  0  0  0  0  0  0
  2  3  1  0  0  0  0
  3  4  1  0  0  0  0
  4  5  2  0  0  0  0
  4  6  1  0  0  0  0
  6  7  1  0  0  0  0
M  CHG  1   1   1
M  END
$$$$
[2,3,5,6-tetrafluoro-4-(methoxymethyl)phenyl]methyl 2,2-dimethyl-3-(1-propenyl)cyclopropanecarboxylate
 OpenBabel03171423152D

 25 26  0  0  0  0  0  0  0  0999 V2000
    8.6842    6.1875    0.0000 C   0  0  0  0  0  0  0  0  0  0  0  0
    7.9697    5.7750    0.0000 O   0  0  0  0  0  0  0  0  0  0  0  0
    7.9697    4.9500    0.0000 C   0  0  0  0  0  0  0  0  0  0  0  0
    7.2552    4.5375    0.0000 C   0  0  0  0  0  0  0  0  0  0  0  0
    7.2552    3.7125    0.0000 C   0  0  0  0  0  0  0  0  0  0  0  0
    7.9697    3.3000    0.0000 F   0  0  0  0  0  0  0  0  0  0  0  0
    6.5408    3.3000    0.0000 C   0  0  0  0  0  0  0  0  0  0  0  0
    6.5408    2.4750    0.0000 F   0  0  0  0  0  0  0  0  0  0  0  0
    5.8263    3.7125    0.0000 C   0  0  0  0  0  0  0  0  0  0  0  0
    5.1118    3.3000    0.0000 C   0  0  0  0  0  0  0  0  0  0  0  0
    4.3974    3.7125    0.0000 O   0  0  0  0  0  0  0  0  0  0  0  0
    3.6829    3.3000    0.0000 C   0  0  0  0  0  0  0  0  0  0  0  0
    3.6829    2.4750    0.0000 O   0  0  0  0  0  0  0  0  0  0  0  0
    2.9684    3.7125    0.0000 C   0  0  3  0  0  0  0  0  0  0  0  0
    2.1434    3.7125    0.0000 C   0  0  3  0  0  0  0  0  0  0  0  0
    1.4289    3.3000    0.0000 C   0  0  0  0  0  0  0  0  0  0  0  0
    0.7145    3.7125    0.0000 C   0  0  0  0  0  0  0  0  0  0  0  0
   -0.0000    3.3000    0.0000 C   0  0  0  0  0  0  0  0  0  0  0  0
    2.5559    4.4270    0.0000 C   0  0  0  0  0  0  0  0  0  0  0  0
    2.0827    5.1028    0.0000 C   0  0  0  0  0  0  0  0  0  0  0  0
    3.0291    5.1028    0.0000 C   0  0  0  0  0  0  0  0  0  0  0  0
    5.8263    4.5375    0.0000 C   0  0  0  0  0  0  0  0  0  0  0  0
    5.1118    4.9500    0.0000 F   0  0  0  0  0  0  0  0  0  0  0  0
    6.5408    4.9500    0.0000 C   0  0  0  0  0  0  0  0  0  0  0  0
    6.5408    5.7750    0.0000 F   0  0  0  0  0  0  0  0  0  0  0  0
  1  2  1  0  0  0  0
  2  3  1  0  0  0  0
  3  4  1  0  0  0  0
  4  5  2  0  0  0  0
  4 24  1  0  0  0  0
  5  6  1  0  0  0  0
  5  7  1  0  0  0  0
  7  8  1  0  0  0  0
  7  9  2  0  0  0  0
  9 10  1  0  0  0  0
  9 22  1  0  0  0  0
 10 11  1  0  0  0  0
 11 12  1  0  0  0  0
 12 13  2  0  0  0  0
 12 14  1  0  0  0  0
 14 15  1  0  0  0  0
 14 19  1  0  0  0  0
 15 16  1  0  0  0  0
 15 19  1  0  0  0  0
 16 17  2  3  0  0  0
 17 18  1  0  0  0  0
 19 20  1  0  0  0  0
 19 21  1  0  0  0  0
 22 23  1  0  0  0  0
 22 24  2  0  0  0  0
 24 25  1  0  0  0  0
M  END
$$$$
Sodium xylene
 OpenBabel03171423152D

  9  8  0  0  0  0  0  0  0  0999 V2000
   -0.1786    0.5156    0.0000 C   0  0  0  0  0  0  0  0  0  0  0  0
    0.5359    0.1031    0.0000 C   0  0  0  0  0  0  0  0  0  0  0  0
    0.5359   -0.7219    0.0000 C   0  0  0  0  0  0  0  0  0  0  0  0
   -0.1786   -1.1344    0.0000 C   0  0  0  0  0  0  0  0  0  0  0  0
   -0.8931   -0.7219    0.0000 C   0  0  0  0  0  0  0  0  0  0  0  0
   -0.8931    0.1031    0.0000 C   0  0  0  0  0  0  0  0  0  0  0  0
   -0.1786    1.3406    0.0000 C   0  0  0  0  0  0  0  0  0  0  0  0
    1.2503    0.5156    0.0000 C   0  0  0  0  0  0  0  0  0  0  0  0
    3.4896    0.0000    0.0000 Na  0  3  0  0  0 15  0  0  0  0  0  0
  1  2  2  0  0  0  0
  1  6  1  0  0  0  0
  1  7  1  0  0  0  0
  2  3  1  0  0  0  0
  2  8  1  0  0  0  0
  3  4  2  0  0  0  0
  4  5  1  0  0  0  0
  5  6  2  0  0  0  0
M  CHG  1   9   1
M  END
>  <type>
systematic

$$$$
Disulfoton
 OpenBabel03171423152D

 14 13  0  0  0  0  0  0  0  0999 V2000
    5.3625   -3.5724    0.0000 C   0  0  0  0  0  0  0  0  0  0  0  0
    4.9500   -2.8579    0.0000 C   0  0  0  0  0  0  0  0  0  0  0  0
    4.1250   -2.8579    0.0000 O   0  0  0  0  0  0  0  0  0  0  0  0
    3.7125   -2.1434    0.0000 P   0  0  0  0  0  0  0  0  0  0  0  0
    4.4270   -1.7309    0.0000 S   0  0  0  0  0  0  0  0  0  0  0  0
    2.9980   -2.5559    0.0000 O   0  0  0  0  0  0  0  0  0  0  0  0
    2.2836   -2.1434    0.0000 C   0  0  0  0  0  0  0  0  0  0  0  0
    1.5691   -2.5559    0.0000 C   0  0  0  0  0  0  0  0  0  0  0  0
    3.3000   -1.4289    0.0000 S   0  0  0  0  0  0  0  0  0  0  0  0
    2.4750   -1.4289    0.0000 C   0  0  0  0  0  0  0  0  0  0  0  0
    2.0625   -0.7145    0.0000 C   0  0  0  0  0  0  0  0  0  0  0  0
    1.2375   -0.7145    0.0000 S   0  0  0  0  0  0  0  0  0  0  0  0
    0.8250    0.0000    0.0000 C   0  0  0  0  0  0  0  0  0  0  0  0
    0.0000    0.0000    0.0000 C   0  0  0  0  0  0  0  0  0  0  0  0
  1  2  1  0  0  0  0
  2  3  1  0  0  0  0
  3  4  1  0  0  0  0
  4  5  2  0  0  0  0
  4  6  1  0  0  0  0
  4  9  1  0  0  0  0
  6  7  1  0  0  0  0
  7  8  1  0  0  0  0
  9 10  1  0  0  0  0
 10 11  1  0  0  0  0
 11 12  1  0  0  0  0
 12 13  1  0  0  0  0
 13 14  1  0  0  0  0
M  END
$$$$
peroxyacetic acid
 OpenBabel03171423152D

  5  4  0  0  0  0  0  0  0  0999 V2000
    2.0625   -0.7145    0.0000 C   0  0  0  0  0  0  0  0  0  0  0  0
    1.2375   -0.7145    0.0000 C   0  0  0  0  0  0  0  0  0  0  0  0
    0.8250   -1.4289    0.0000 O   0  0  0  0  0  0  0  0  0  0  0  0
    0.8250    0.0000    0.0000 O   0  0  0  0  0  0  0  0  0  0  0  0
    0.0000    0.0000    0.0000 O   0  0  0  0  0  0  0  0  0  0  0  0
  1  2  1  0  0  0  0
  2  3  2  0  0  0  0
  2  4  1  0  0  0  0
  4  5  1  0  0  0  0
M  END
$$$$
DL-Phosphinothricin
 OpenBabel03171423152D

 12 10  0  0  0  0  0  0  0  0999 V2000
    0.0000    0.0000    0.0000 N   0  3  0  0  0  0  0  0  0  0  0  0
    2.4234    2.0785    0.0000 C   0  0  0  0  0  0  0  0  0  0  0  0
    2.8359    1.3640    0.0000 P   0  0  3  0  0  0  0  0  0  0  0  0
    2.1214    0.9515    0.0000 O   0  0  0  0  0  0  0  0  0  0  0  0
    3.5504    1.7765    0.0000 O   0  0  0  0  0  0  0  0  0  0  0  0
    3.2484    0.6495    0.0000 C   0  0  0  0  0  0  0  0  0  0  0  0
    2.8359   -0.0650    0.0000 C   0  0  0  0  0  0  0  0  0  0  0  0
    3.2484   -0.7794    0.0000 C   0  0  3  0  0  0  0  0  0  0  0  0
    4.0734   -0.7794    0.0000 N   0  0  0  0  0  0  0  0  0  0  0  0
    2.8359   -1.4939    0.0000 C   0  0  0  0  0  0  0  0  0  0  0  0
    3.2484   -2.2084    0.0000 O   0  5  0  0  0  0  0  0  0  0  0  0
    2.0109   -1.4939    0.0000 O   0  0  0  0  0  0  0  0  0  0  0  0
  2  3  1  0  0  0  0
  3  4  1  0  0  0  0
  3  5  2  0  0  0  0
  3  6  1  0  0  0  0
  6  7  1  0  0  0  0
  7  8  1  0  0  0  0
  8  9  1  0  0  0  0
  8 10  1  0  0  0  0
 10 11  1  0  0  0  0
 10 12  2  0  0  0  0
M  CHG  2   1   1  11  -1
M  END
>  <type>
common

$$$$
Pyrimethanil
 OpenBabel03171423152D

 15 16  0  0  0  0  0  0  0  0999 V2000
    2.1434   -0.4125    0.0000 C   0  0  0  0  0  0  0  0  0  0  0  0
    2.1434   -1.2375    0.0000 C   0  0  0  0  0  0  0  0  0  0  0  0
    2.8579   -1.6500    0.0000 C   0  0  0  0  0  0  0  0  0  0  0  0
    2.8579   -2.4750    0.0000 C   0  0  0  0  0  0  0  0  0  0  0  0
    3.5724   -2.8875    0.0000 C   0  0  0  0  0  0  0  0  0  0  0  0
    2.1434   -2.8875    0.0000 N   0  0  0  0  0  0  0  0  0  0  0  0
    1.4289   -2.4750    0.0000 C   0  0  0  0  0  0  0  0  0  0  0  0
    0.7145   -2.8875    0.0000 N   0  0  0  0  0  0  0  0  0  0  0  0
    0.0000   -2.4750    0.0000 C   0  0  0  0  0  0  0  0  0  0  0  0
   -0.7145   -2.8875    0.0000 C   0  0  0  0  0  0  0  0  0  0  0  0
   -1.4289   -2.4750    0.0000 C   0  0  0  0  0  0  0  0  0  0  0  0
   -1.4289   -1.6500    0.0000 C   0  0  0  0  0  0  0  0  0  0  0  0
   -0.7145   -1.2375    0.0000 C   0  0  0  0  0  0  0  0  0  0  0  0
    0.0000   -1.6500    0.0000 C   0  0  0  0  0  0  0  0  0  0  0  0
    1.4289   -1.6500    0.0000 N   0  0  0  0  0  0  0  0  0  0  0  0
  1  2  1  0  0  0  0
  2  3  2  0  0  0  0
  2 15  1  0  0  0  0
  3  4  1  0  0  0  0
  4  5  1  0  0  0  0
  4  6  2  0  0  0  0
  6  7  1  0  0  0  0
  7  8  1  0  0  0  0
  7 15  2  0  0  0  0
  8  9  1  0  0  0  0
  9 10  2  0  0  0  0
  9 14  1  0  0  0  0
 10 11  1  0  0  0  0
 11 12  2  0  0  0  0
 12 13  1  0  0  0  0
 13 14  2  0  0  0  0
M  END
$$$$
NaCN
 OpenBabel03171423152D

  3  2  0  0  0  0  0  0  0  0999 V2000
    1.6500   -0.0000    0.0000 Na  0  0  0  0  0  0  0  0  0  0  0  0
    2.4750   -0.0000    0.0000 C   0  0  0  0  0  0  0  0  0  0  0  0
    3.3000    0.0000    0.0000 N   0  0  0  0  0  0  0  0  0  0  0  0
  1  2  1  0  0  0  0
  2  3  3  0  0  0  0
M  END
$$$$
Dimethazan
 OpenBabel03171423152D

  3  2  0  0  0  0  0  0  0  0999 V2000
    1.2375   -0.7145    0.0000 C   0  0  0  0  0  0  0  0  0  0  0  0
    1.9520   -1.1270    0.0000 N   0  0  0  0  0  0  0  0  0  0  0  0
    2.6664   -0.7145    0.0000 C   0  0  0  0  0  0  0  0  0  0  0  0
  1  2  1  0  0  0  0
  2  3  1  0  0  0  0
M  END
$$$$
2-methoxyethanol
 OpenBabel03171423152D

  5  4  0  0  0  0  0  0  0  0999 V2000
    2.4750   -1.4289    0.0000 C   0  0  0  0  0  0  0  0  0  0  0  0
    2.0625   -0.7145    0.0000 O   0  0  0  0  0  0  0  0  0  0  0  0
    1.2375   -0.7145    0.0000 C   0  0  0  0  0  0  0  0  0  0  0  0
    0.8250    0.0000    0.0000 C   0  0  0  0  0  0  0  0  0  0  0  0
    0.0000    0.0000    0.0000 O   0  0  0  0  0  0  0  0  0  0  0  0
  1  2  1  0  0  0  0
  2  3  1  0  0  0  0
  3  4  1  0  0  0  0
  4  5  1  0  0  0  0
M  END
$$$$
pyraflufen-ethyl
 OpenBabel03171423152D

 26 27  0  0  0  0  0  0  0  0999 V2000
   -1.4289   -3.3000    0.0000 C   0  0  0  0  0  0  0  0  0  0  0  0
   -0.7145   -3.7125    0.0000 C   0  0  0  0  0  0  0  0  0  0  0  0
    0.0000   -3.3000    0.0000 O   0  0  0  0  0  0  0  0  0  0  0  0
    0.7145   -3.7125    0.0000 C   0  0  0  0  0  0  0  0  0  0  0  0
    0.7145   -4.5375    0.0000 O   0  0  0  0  0  0  0  0  0  0  0  0
    1.4289   -3.3000    0.0000 C   0  0  0  0  0  0  0  0  0  0  0  0
    2.1434   -3.7125    0.0000 O   0  0  0  0  0  0  0  0  0  0  0  0
    2.8579   -3.3000    0.0000 C   0  0  0  0  0  0  0  0  0  0  0  0
    2.8579   -2.4750    0.0000 C   0  0  0  0  0  0  0  0  0  0  0  0
    2.1434   -2.0625    0.0000 Cl  0  0  0  0  0  0  0  0  0  0  0  0
    3.5724   -2.0625    0.0000 C   0  0  0  0  0  0  0  0  0  0  0  0
    4.2868   -2.4750    0.0000 C   0  0  0  0  0  0  0  0  0  0  0  0
    5.0013   -2.0625    0.0000 F   0  0  0  0  0  0  0  0  0  0  0  0
    4.2868   -3.3000    0.0000 C   0  0  0  0  0  0  0  0  0  0  0  0
    3.5724   -3.7125    0.0000 C   0  0  0  0  0  0  0  0  0  0  0  0
    5.0013   -3.7125    0.0000 C   0  0  0  0  0  0  0  0  0  0  0  0
    5.7550   -3.3769    0.0000 N   0  0  0  0  0  0  0  0  0  0  0  0
    6.3070   -3.9900    0.0000 N   0  0  0  0  0  0  0  0  0  0  0  0
    7.1275   -3.9038    0.0000 C   0  0  0  0  0  0  0  0  0  0  0  0
    5.8945   -4.7045    0.0000 C   0  0  0  0  0  0  0  0  0  0  0  0
    6.2301   -5.4582    0.0000 O   0  0  0  0  0  0  0  0  0  0  0  0
    7.0505   -5.5444    0.0000 C   0  0  0  0  0  0  0  0  0  0  0  0
    7.5355   -4.8770    0.0000 F   0  0  0  0  0  0  0  0  0  0  0  0
    7.3861   -6.2981    0.0000 F   0  0  0  0  0  0  0  0  0  0  0  0
    5.0875   -4.5330    0.0000 C   0  0  0  0  0  0  0  0  0  0  0  0
    4.4744   -5.0850    0.0000 Cl  0  0  0  0  0  0  0  0  0  0  0  0
  1  2  1  0  0  0  0
  2  3  1  0  0  0  0
  3  4  1  0  0  0  0
  4  5  2  0  0  0  0
  4  6  1  0  0  0  0
  6  7  1  0  0  0  0
  7  8  1  0  0  0  0
  8  9  2  0  0  0  0
  8 15  1  0  0  0  0
  9 10  1  0  0  0  0
  9 11  1  0  0  0  0
 11 12  2  0  0  0  0
 12 13  1  0  0  0  0
 12 14  1  0  0  0  0
 14 15  2  0  0  0  0
 14 16  1  0  0  0  0
 16 17  2  0  0  0  0
 16 25  1  0  0  0  0
 17 18  1  0  0  0  0
 18 19  1  0  0  0  0
 18 20  1  0  0  0  0
 20 21  1  0  0  0  0
 20 25  2  0  0  0  0
 21 22  1  0  0  0  0
 22 23  1  0  0  0  0
 22 24  1  0  0  0  0
 25 26  1  0  0  0  0
M  END
$$$$
2,6-dimethoxy
 OpenBabel03171423152D

  4  3  0  0  0  0  0  0  0  0999 V2000
    2.0625   -0.7145    0.0000 C   0  0  0  0  0  0  0  0  0  0  0  0
    1.2375   -0.7145    0.0000 O   0  0  0  0  0  0  0  0  0  0  0  0
    0.8250    0.0000    0.0000 O   0  0  0  0  0  0  0  0  0  0  0  0
    0.0000    0.0000    0.0000 C   0  0  0  0  0  0  0  0  0  0  0  0
  1  2  1  0  0  0  0
  2  3  1  0  0  0  0
  3  4  1  0  0  0  0
M  END
$$$$
Vinclozolin
 OpenBabel03171423152D

 18 19  0  0  0  0  0  0  0  0999 V2000
    0.1624   -0.6244    0.0000 C   0  0  0  0  0  0  0  0  0  0  0  0
    0.7145   -1.2375    0.0000 C   0  0  3  0  0  0  0  0  0  0  0  0
    1.3819   -1.7224    0.0000 O   0  0  0  0  0  0  0  0  0  0  0  0
    1.1270   -2.5070    0.0000 C   0  0  0  0  0  0  0  0  0  0  0  0
    1.6119   -3.1745    0.0000 O   0  0  0  0  0  0  0  0  0  0  0  0
    0.3020   -2.5070    0.0000 N   0  0  0  0  0  0  0  0  0  0  0  0
    0.0470   -1.7224    0.0000 C   0  0  0  0  0  0  0  0  0  0  0  0
   -0.7376   -1.4675    0.0000 O   0  0  0  0  0  0  0  0  0  0  0  0
   -0.1830   -3.1745    0.0000 C   0  0  0  0  0  0  0  0  0  0  0  0
    0.1526   -3.9282    0.0000 C   0  0  0  0  0  0  0  0  0  0  0  0
   -0.3323   -4.5956    0.0000 C   0  0  0  0  0  0  0  0  0  0  0  0
    0.0032   -5.3493    0.0000 Cl  0  0  0  0  0  0  0  0  0  0  0  0
   -1.1528   -4.5094    0.0000 C   0  0  0  0  0  0  0  0  0  0  0  0
   -1.4884   -3.7557    0.0000 C   0  0  0  0  0  0  0  0  0  0  0  0
   -2.3088   -3.6695    0.0000 Cl  0  0  0  0  0  0  0  0  0  0  0  0
   -1.0034   -3.0882    0.0000 C   0  0  0  0  0  0  0  0  0  0  0  0
    1.2665   -0.6244    0.0000 C   0  0  0  0  0  0  0  0  0  0  0  0
    1.0116    0.1602    0.0000 C   0  0  0  0  0  0  0  0  0  0  0  0
  1  2  1  0  0  0  0
  2  3  1  0  0  0  0
  2  7  1  0  0  0  0
  2 17  1  0  0  0  0
  3  4  1  0  0  0  0
  4  5  2  0  0  0  0
  4  6  1  0  0  0  0
  6  7  1  0  0  0  0
  6  9  1  0  0  0  0
  7  8  2  0  0  0  0
  9 10  2  0  0  0  0
  9 16  1  0  0  0  0
 10 11  1  0  0  0  0
 11 12  1  0  0  0  0
 11 13  2  0  0  0  0
 13 14  1  0  0  0  0
 14 15  1  0  0  0  0
 14 16  2  0  0  0  0
 17 18  2  0  0  0  0
M  END
$$$$
Zinc 2-pyridinethiol-1-oxide
 OpenBabel03171423152D

  9  8  0  0  0  0  0  0  0  0999 V2000
    0.0000    0.0000    0.0000 Zn  0  0  0  0  0 15  0  0  0  0  0  0
    2.8359    1.3406    0.0000 S   0  0  0  0  0  0  0  0  0  0  0  0
    2.8359    0.5156    0.0000 C   0  0  0  0  0  0  0  0  0  0  0  0
    3.5504    0.1031    0.0000 N   0  0  0  0  0  0  0  0  0  0  0  0
    4.2648    0.5156    0.0000 O   0  0  0  0  0  0  0  0  0  0  0  0
    3.5504   -0.7219    0.0000 C   0  0  0  0  0  0  0  0  0  0  0  0
    2.8359   -1.1344    0.0000 C   0  0  0  0  0  0  0  0  0  0  0  0
    2.1214   -0.7219    0.0000 C   0  0  0  0  0  0  0  0  0  0  0  0
    2.1214    0.1031    0.0000 C   0  0  0  0  0  0  0  0  0  0  0  0
  2  3  1  0  0  0  0
  3  4  2  0  0  0  0
  3  9  1  0  0  0  0
  4  5  2  0  0  0  0
  4  6  1  0  0  0  0
  6  7  2  0  0  0  0
  7  8  1  0  0  0  0
  8  9  2  0  0  0  0
M  END
$$$$
1-(3-chloroallyl)-3,5,7-triaza-1-azoniaadamantane
 OpenBabel03171423152D

 14 16  0  0  0  0  0  0  0  0999 V2000
    0.1163   -2.0322    0.0000 C   0  0  0  0  0  0  0  0  0  0  0  0
    0.8517   -1.6585    0.0000 N   0  0  3  0  0  0  0  0  0  0  0  0
    0.8517   -0.9111    0.0000 C   0  0  0  0  0  0  0  0  0  0  0  0
    1.3012   -0.1208    0.0000 N   0  0  3  0  0  0  0  0  0  0  0  0
    0.5657   -0.4945    0.0000 C   0  0  0  0  0  0  0  0  0  0  0  0
    0.5657   -1.2419    0.0000 N   0  3  3  0  0  0  0  0  0  0  0  0
    1.3012   -1.6156    0.0000 C   0  0  0  0  0  0  0  0  0  0  0  0
    2.0368   -1.2419    0.0000 N   0  0  3  0  0  0  0  0  0  0  0  0
    1.5873   -2.0322    0.0000 C   0  0  0  0  0  0  0  0  0  0  0  0
    2.0368   -0.4945    0.0000 C   0  0  0  0  0  0  0  0  0  0  0  0
   -0.2319   -1.0310    0.0000 C   0  0  0  0  0  0  0  0  0  0  0  0
   -0.8133   -1.6163    0.0000 C   0  0  0  0  0  0  0  0  0  0  0  0
   -1.6109   -1.4053    0.0000 C   0  0  0  0  0  0  0  0  0  0  0  0
   -2.1924   -1.9906    0.0000 Cl  0  0  0  0  0  0  0  0  0  0  0  0
  1  2  1  0  0  0  0
  1  6  1  0  0  0  0
  2  9  1  0  0  0  0
  2  3  1  0  0  0  0
  3  4  1  0  0  0  0
  4 10  1  0  0  0  0
  4  5  1  0  0  0  0
  5  6  1  0  0  0  0
  6  7  1  0  0  0  0
  6 11  1  0  0  0  0
  7  8  1  0  0  0  0
  8  9  1  0  0  0  0
  8 10  1  0  0  0  0
 11 12  1  0  0  0  0
 12 13  2  3  0  0  0
 13 14  1  0  0  0  0
M  CHG  1   6   1
M  END
>  <type>
systematic

$$$$
1,3-dichloro-5-ethyl-5-methylimidazolidine-2,4-dione
 OpenBabel03171423152D

 12 12  0  0  0  0  0  0  0  0999 V2000
    1.2352    0.6294    0.0000 N   0  0  0  0  0  0  0  0  0  0  0  0
    0.9803   -0.1553    0.0000 C   0  0  0  0  0  0  0  0  0  0  0  0
    0.1553   -0.1553    0.0000 N   0  0  0  0  0  0  0  0  0  0  0  0
   -0.0997    0.6294    0.0000 C   0  0  0  0  0  0  0  0  0  0  0  0
    0.5678    1.1143    0.0000 C   0  0  3  0  0  0  0  0  0  0  0  0
    1.4652   -0.8227    0.0000 O   0  0  0  0  0  0  0  0  0  0  0  0
   -0.8843    0.8843    0.0000 O   0  0  0  0  0  0  0  0  0  0  0  0
    0.1628    1.8330    0.0000 C   0  0  0  0  0  0  0  0  0  0  0  0
    0.9728    1.8330    0.0000 C   0  0  0  0  0  0  0  0  0  0  0  0
    0.5528    2.5432    0.0000 C   0  0  0  0  0  0  0  0  0  0  0  0
    2.0198    0.8843    0.0000 Cl  0  0  0  0  0  0  0  0  0  0  0  0
   -0.3297   -0.8227    0.0000 Cl  0  0  0  0  0  0  0  0  0  0  0  0
  1  2  1  0  0  0  0
  1  5  1  0  0  0  0
  1 11  1  0  0  0  0
  2  3  1  0  0  0  0
  2  6  2  0  0  0  0
  3  4  1  0  0  0  0
  3 12  1  0  0  0  0
  4  5  1  0  0  0  0
  4  7  2  0  0  0  0
  5  8  1  0  0  0  0
  5  9  1  0  0  0  0
  9 10  1  0  0  0  0
M  END
>  <type>
systematic

$$$$
mefluidide
 OpenBabel03171423152D

 20 20  0  0  0  0  0  0  0  0999 V2000
    0.0000    3.3000    0.0000 C   0  0  0  0  0  0  0  0  0  0  0  0
    0.0000    2.4750    0.0000 C   0  0  0  0  0  0  0  0  0  0  0  0
   -0.7145    2.0625    0.0000 O   0  0  0  0  0  0  0  0  0  0  0  0
    0.7145    2.0625    0.0000 N   0  0  0  0  0  0  0  0  0  0  0  0
    0.7145    1.2375    0.0000 C   0  0  0  0  0  0  0  0  0  0  0  0
    1.4289    0.8250    0.0000 C   0  0  0  0  0  0  0  0  0  0  0  0
    1.4289   -0.0000    0.0000 C   0  0  0  0  0  0  0  0  0  0  0  0
    2.1434   -0.4125    0.0000 N   0  0  0  0  0  0  0  0  0  0  0  0
    2.8579   -0.0000    0.0000 S   0  0  0  0  0  0  0  0  0  0  0  0
    3.2704   -0.7145    0.0000 O   0  0  0  0  0  0  0  0  0  0  0  0
    2.4454    0.7145    0.0000 O   0  0  0  0  0  0  0  0  0  0  0  0
    3.5724    0.4125    0.0000 C   0  0  0  0  0  0  0  0  0  0  0  0
    4.2868    0.8250    0.0000 F   0  0  0  0  0  0  0  0  0  0  0  0
    3.9849   -0.3020    0.0000 F   0  0  0  0  0  0  0  0  0  0  0  0
    3.1599    1.1270    0.0000 F   0  0  0  0  0  0  0  0  0  0  0  0
    0.7145   -0.4125    0.0000 C   0  0  0  0  0  0  0  0  0  0  0  0
    0.7145   -1.2375    0.0000 C   0  0  0  0  0  0  0  0  0  0  0  0
    0.0000    0.0000    0.0000 C   0  0  0  0  0  0  0  0  0  0  0  0
    0.0000    0.8250    0.0000 C   0  0  0  0  0  0  0  0  0  0  0  0
   -0.7145    1.2375    0.0000 C   0  0  0  0  0  0  0  0  0  0  0  0
  1  2  1  0  0  0  0
  2  3  2  0  0  0  0
  2  4  1  0  0  0  0
  4  5  1  0  0  0  0
  5  6  2  0  0  0  0
  5 19  1  0  0  0  0
  6  7  1  0  0  0  0
  7  8  1  0  0  0  0
  7 16  2  0  0  0  0
  8  9  1  0  0  0  0
  9 10  2  0  0  0  0
  9 11  2  0  0  0  0
  9 12  1  0  0  0  0
 12 13  1  0  0  0  0
 12 14  1  0  0  0  0
 12 15  1  0  0  0  0
 16 17  1  0  0  0  0
 16 18  1  0  0  0  0
 18 19  2  0  0  0  0
 19 20  1  0  0  0  0
M  END
$$$$
4,5-dihydro-1H-imidazole
 OpenBabel03171423152D

  5  5  0  0  0  0  0  0  0  0999 V2000
    0.5678    1.1143    0.0000 C   0  0  0  0  0  0  0  0  0  0  0  0
    1.2352    0.6294    0.0000 C   0  0  0  0  0  0  0  0  0  0  0  0
    0.9803   -0.1553    0.0000 N   0  0  0  0  0  0  0  0  0  0  0  0
    0.1553   -0.1553    0.0000 C   0  0  0  0  0  0  0  0  0  0  0  0
   -0.0997    0.6294    0.0000 N   0  0  0  0  0  0  0  0  0  0  0  0
  1  2  1  0  0  0  0
  1  5  1  0  0  0  0
  2  3  1  0  0  0  0
  3  4  2  0  0  0  0
  4  5  1  0  0  0  0
M  END
$$$$
gamma-cyhalothrin
 OpenBabel03171423152D

 31 33  0  0  1  0  0  0  0  0999 V2000
    0.5432   -2.6053    0.0000 C   0  0  0  0  0  0  0  0  0  0  0  0
    1.3184   -2.8875    0.0000 C   0  0  0  0  0  0  0  0  0  0  0  0
    1.1752   -3.7000    0.0000 C   0  0  0  0  0  0  0  0  0  0  0  0
    1.7309   -2.1730    0.0000 C   0  0  1  0  0  0  0  0  0  0  0  0
    1.7309   -1.3480    0.0000 C   0  0  0  0  0  0  0  0  0  0  0  0
    2.4454   -0.9355    0.0000 C   0  0  0  0  0  0  0  0  0  0  0  0
    3.1599   -1.3480    0.0000 Cl  0  0  0  0  0  0  0  0  0  0  0  0
    2.4454   -0.1105    0.0000 C   0  0  0  0  0  0  0  0  0  0  0  0
    2.4454    0.7145    0.0000 F   0  0  0  0  0  0  0  0  0  0  0  0
    1.6204   -0.1105    0.0000 F   0  0  0  0  0  0  0  0  0  0  0  0
    3.2704   -0.1105    0.0000 F   0  0  0  0  0  0  0  0  0  0  0  0
    2.1434   -2.8875    0.0000 C   0  0  1  0  0  0  0  0  0  0  0  0
    2.8579   -3.3000    0.0000 C   0  0  0  0  0  0  0  0  0  0  0  0
    3.5724   -2.8875    0.0000 O   0  0  0  0  0  0  0  0  0  0  0  0
    2.8579   -4.1250    0.0000 O   0  0  0  0  0  0  0  0  0  0  0  0
    3.5724   -4.5375    0.0000 C   0  0  2  0  0  0  0  0  0  0  0  0
    4.2868   -4.1250    0.0000 C   0  0  0  0  0  0  0  0  0  0  0  0
    5.0013   -3.7125    0.0000 N   0  0  0  0  0  0  0  0  0  0  0  0
    3.5724   -5.3625    0.0000 C   0  0  0  0  0  0  0  0  0  0  0  0
    4.2868   -5.7750    0.0000 C   0  0  0  0  0  0  0  0  0  0  0  0
    4.2868   -6.6000    0.0000 C   0  0  0  0  0  0  0  0  0  0  0  0
    5.0013   -7.0125    0.0000 O   0  0  0  0  0  0  0  0  0  0  0  0
    5.0013   -7.8375    0.0000 C   0  0  0  0  0  0  0  0  0  0  0  0
    5.7158   -8.2500    0.0000 C   0  0  0  0  0  0  0  0  0  0  0  0
    5.7158   -9.0750    0.0000 C   0  0  0  0  0  0  0  0  0  0  0  0
    5.0013   -9.4875    0.0000 C   0  0  0  0  0  0  0  0  0  0  0  0
    4.2868   -9.0750    0.0000 C   0  0  0  0  0  0  0  0  0  0  0  0
    4.2868   -8.2500    0.0000 C   0  0  0  0  0  0  0  0  0  0  0  0
    3.5724   -7.0125    0.0000 C   0  0  0  0  0  0  0  0  0  0  0  0
    2.8579   -6.6000    0.0000 C   0  0  0  0  0  0  0  0  0  0  0  0
    2.8579   -5.7750    0.0000 C   0  0  0  0  0  0  0  0  0  0  0  0
  1  2  1  0  0  0  0
  2  3  1  0  0  0  0
  2  4  1  0  0  0  0
  2 12  1  0  0  0  0
  4  5  1  1  0  0  0
  4 12  1  0  0  0  0
  5  6  2  0  0  0  0
  6  7  1  0  0  0  0
  6  8  1  0  0  0  0
  8  9  1  0  0  0  0
  8 10  1  0  0  0  0
  8 11  1  0  0  0  0
 12 13  1  1  0  0  0
 13 14  2  0  0  0  0
 13 15  1  0  0  0  0
 16 15  1  6  0  0  0
 16 17  1  0  0  0  0
 16 19  1  0  0  0  0
 17 18  3  0  0  0  0
 19 20  2  0  0  0  0
 19 31  1  0  0  0  0
 20 21  1  0  0  0  0
 21 22  1  0  0  0  0
 21 29  2  0  0  0  0
 22 23  1  0  0  0  0
 23 24  2  0  0  0  0
 23 28  1  0  0  0  0
 24 25  1  0  0  0  0
 25 26  2  0  0  0  0
 26 27  1  0  0  0  0
 27 28  2  0  0  0  0
 29 30  1  0  0  0  0
 30 31  2  0  0  0  0
M  END
$$$$
Para-tert-amylphenol
 OpenBabel03171423152D

 12 12  0  0  0  0  0  0  0  0999 V2000
    0.0000    3.3000    0.0000 C   0  0  0  0  0  0  0  0  0  0  0  0
    0.7145    2.8875    0.0000 C   0  0  0  0  0  0  0  0  0  0  0  0
    0.7145    2.0625    0.0000 C   0  0  0  0  0  0  0  0  0  0  0  0
   -0.1105    2.0625    0.0000 C   0  0  0  0  0  0  0  0  0  0  0  0
    1.5395    2.0625    0.0000 C   0  0  0  0  0  0  0  0  0  0  0  0
    0.7145    1.2375    0.0000 C   0  0  0  0  0  0  0  0  0  0  0  0
    1.4289    0.8250    0.0000 C   0  0  0  0  0  0  0  0  0  0  0  0
    1.4289   -0.0000    0.0000 C   0  0  0  0  0  0  0  0  0  0  0  0
    0.7145   -0.4125    0.0000 C   0  0  0  0  0  0  0  0  0  0  0  0
    0.7145   -1.2375    0.0000 O   0  0  0  0  0  0  0  0  0  0  0  0
    0.0000    0.0000    0.0000 C   0  0  0  0  0  0  0  0  0  0  0  0
    0.0000    0.8250    0.0000 C   0  0  0  0  0  0  0  0  0  0  0  0
  1  2  1  0  0  0  0
  2  3  1  0  0  0  0
  3  4  1  0  0  0  0
  3  5  1  0  0  0  0
  3  6  1  0  0  0  0
  6  7  2  0  0  0  0
  6 12  1  0  0  0  0
  7  8  1  0  0  0  0
  8  9  2  0  0  0  0
  9 10  1  0  0  0  0
  9 11  1  0  0  0  0
 11 12  2  0  0  0  0
M  END
$$$$
acrolein
 OpenBabel03171423152D

  4  3  0  0  0  0  0  0  0  0999 V2000
    2.0625   -0.7145    0.0000 C   0  0  0  0  0  0  0  0  0  0  0  0
    1.2375   -0.7145    0.0000 C   0  0  0  0  0  0  0  0  0  0  0  0
    0.8250    0.0000    0.0000 C   0  0  0  0  0  0  0  0  0  0  0  0
    0.0000    0.0000    0.0000 O   0  0  0  0  0  0  0  0  0  0  0  0
  1  2  2  0  0  0  0
  2  3  1  0  0  0  0
  3  4  2  0  0  0  0
M  END
$$$$
benzyl ammonium chloride dihydrate
 OpenBabel03171423152D

 11  8  0  0  0  0  0  0  0  0999 V2000
    0.0000    0.0000    0.0000 O   0  0  0  0  0  0  0  0  0  0  0  0
    2.2393    0.0000    0.0000 O   0  0  0  0  0  0  0  0  0  0  0  0
    0.0000   -3.2484    0.0000 Cl  0  5  0  0  0  0  0  0  0  0  0  0
    2.3571   -1.6500    0.0000 N   0  3  0  0  0  0  0  0  0  0  0  0
    3.0716   -2.0625    0.0000 C   0  0  0  0  0  0  0  0  0  0  0  0
    3.0716   -2.8875    0.0000 C   0  0  0  0  0  0  0  0  0  0  0  0
    3.7861   -3.3000    0.0000 C   0  0  0  0  0  0  0  0  0  0  0  0
    3.7861   -4.1250    0.0000 C   0  0  0  0  0  0  0  0  0  0  0  0
    3.0716   -4.5375    0.0000 C   0  0  0  0  0  0  0  0  0  0  0  0
    2.3571   -4.1250    0.0000 C   0  0  0  0  0  0  0  0  0  0  0  0
    2.3571   -3.3000    0.0000 C   0  0  0  0  0  0  0  0  0  0  0  0
  4  5  1  0  0  0  0
  5  6  1  0  0  0  0
  6  7  2  0  0  0  0
  6 11  1  0  0  0  0
  7  8  1  0  0  0  0
  8  9  2  0  0  0  0
  9 10  1  0  0  0  0
 10 11  2  0  0  0  0
M  CHG  2   3  -1   4   1
M  END
$$$$
Methyloxiran
 OpenBabel03171423152D

  4  4  0  0  0  0  0  0  0  0999 V2000
    0.2382    1.7138    0.0000 C   0  0  0  0  0  0  0  0  0  0  0  0
    0.2382    0.8888    0.0000 C   0  0  3  0  0  0  0  0  0  0  0  0
    0.6507    0.1743    0.0000 C   0  0  0  0  0  0  0  0  0  0  0  0
   -0.1743    0.1743    0.0000 O   0  0  0  0  0  0  0  0  0  0  0  0
  1  2  1  0  0  0  0
  2  3  1  0  0  0  0
  2  4  1  0  0  0  0
  3  4  1  0  0  0  0
M  END
$$$$
Dichlorpropene
 OpenBabel03171423152D

  5  4  0  0  0  0  0  0  0  0999 V2000
    2.0625    0.7145    0.0000 Cl  0  0  0  0  0  0  0  0  0  0  0  0
    1.2375    0.7145    0.0000 C   0  0  0  0  0  0  0  0  0  0  0  0
    0.8250    0.0000    0.0000 C   0  0  0  0  0  0  0  0  0  0  0  0
    0.0000    0.0000    0.0000 C   0  0  0  0  0  0  0  0  0  0  0  0
   -0.4125   -0.7145    0.0000 Cl  0  0  0  0  0  0  0  0  0  0  0  0
  1  2  1  0  0  0  0
  2  3  1  0  0  0  0
  3  4  2  3  0  0  0
  4  5  1  0  0  0  0
M  END
$$$$
2,4-Xylenol
 OpenBabel03171423152D

  9  9  0  0  0  0  0  0  0  0999 V2000
    0.7145    2.0625    0.0000 C   0  0  0  0  0  0  0  0  0  0  0  0
    0.7145    1.2375    0.0000 C   0  0  0  0  0  0  0  0  0  0  0  0
    1.4289    0.8250    0.0000 C   0  0  0  0  0  0  0  0  0  0  0  0
    1.4289   -0.0000    0.0000 C   0  0  0  0  0  0  0  0  0  0  0  0
    2.1434   -0.4125    0.0000 C   0  0  0  0  0  0  0  0  0  0  0  0
    0.7145   -0.4125    0.0000 C   0  0  0  0  0  0  0  0  0  0  0  0
    0.7145   -1.2375    0.0000 O   0  0  0  0  0  0  0  0  0  0  0  0
    0.0000    0.0000    0.0000 C   0  0  0  0  0  0  0  0  0  0  0  0
    0.0000    0.8250    0.0000 C   0  0  0  0  0  0  0  0  0  0  0  0
  1  2  1  0  0  0  0
  2  3  2  0  0  0  0
  2  9  1  0  0  0  0
  3  4  1  0  0  0  0
  4  5  1  0  0  0  0
  4  6  2  0  0  0  0
  6  7  1  0  0  0  0
  6  8  1  0  0  0  0
  8  9  2  0  0  0  0
M  END
$$$$
triethylenglykol
 OpenBabel03171423152D

 10  9  0  0  0  0  0  0  0  0999 V2000
    2.2836    2.1434    0.0000 O   0  0  0  0  0  0  0  0  0  0  0  0
    2.9980    2.5559    0.0000 C   0  0  0  0  0  0  0  0  0  0  0  0
    3.7125    2.1434    0.0000 C   0  0  0  0  0  0  0  0  0  0  0  0
    4.4270    2.5559    0.0000 O   0  0  0  0  0  0  0  0  0  0  0  0
    5.1414    2.1434    0.0000 C   0  0  0  0  0  0  0  0  0  0  0  0
    5.8559    2.5559    0.0000 C   0  0  0  0  0  0  0  0  0  0  0  0
    6.5704    2.1434    0.0000 O   0  0  0  0  0  0  0  0  0  0  0  0
    7.2849    2.5559    0.0000 C   0  0  0  0  0  0  0  0  0  0  0  0
    7.9993    2.1434    0.0000 C   0  0  0  0  0  0  0  0  0  0  0  0
    8.7138    2.5559    0.0000 O   0  0  0  0  0  0  0  0  0  0  0  0
  1  2  1  0  0  0  0
  2  3  1  0  0  0  0
  3  4  1  0  0  0  0
  4  5  1  0  0  0  0
  5  6  1  0  0  0  0
  6  7  1  0  0  0  0
  7  8  1  0  0  0  0
  8  9  1  0  0  0  0
  9 10  1  0  0  0  0
M  END
$$$$
Phenmedipham
 OpenBabel03171423152D

 22 23  0  0  0  0  0  0  0  0999 V2000
   -0.7145    1.2375    0.0000 C   0  0  0  0  0  0  0  0  0  0  0  0
   -1.4289    0.8250    0.0000 O   0  0  0  0  0  0  0  0  0  0  0  0
   -1.4289   -0.0000    0.0000 C   0  0  0  0  0  0  0  0  0  0  0  0
   -0.7145   -0.4125    0.0000 O   0  0  0  0  0  0  0  0  0  0  0  0
   -2.1434   -0.4125    0.0000 N   0  0  0  0  0  0  0  0  0  0  0  0
   -2.1434   -1.2375    0.0000 C   0  0  0  0  0  0  0  0  0  0  0  0
   -1.4289   -1.6500    0.0000 C   0  0  0  0  0  0  0  0  0  0  0  0
   -1.4289   -2.4750    0.0000 C   0  0  0  0  0  0  0  0  0  0  0  0
   -2.1434   -2.8875    0.0000 C   0  0  0  0  0  0  0  0  0  0  0  0
   -2.8579   -2.4750    0.0000 C   0  0  0  0  0  0  0  0  0  0  0  0
   -3.5724   -2.8875    0.0000 O   0  0  0  0  0  0  0  0  0  0  0  0
   -4.2868   -2.4750    0.0000 C   0  0  0  0  0  0  0  0  0  0  0  0
   -4.2868   -1.6500    0.0000 O   0  0  0  0  0  0  0  0  0  0  0  0
   -5.0013   -2.8875    0.0000 N   0  0  0  0  0  0  0  0  0  0  0  0
   -5.0013   -3.7125    0.0000 C   0  0  0  0  0  0  0  0  0  0  0  0
   -4.2868   -4.1250    0.0000 C   0  0  0  0  0  0  0  0  0  0  0  0
   -4.2868   -4.9500    0.0000 C   0  0  0  0  0  0  0  0  0  0  0  0
   -5.0013   -5.3625    0.0000 C   0  0  0  0  0  0  0  0  0  0  0  0
   -5.7158   -4.9500    0.0000 C   0  0  0  0  0  0  0  0  0  0  0  0
   -6.4302   -5.3625    0.0000 C   0  0  0  0  0  0  0  0  0  0  0  0
   -5.7158   -4.1250    0.0000 C   0  0  0  0  0  0  0  0  0  0  0  0
   -2.8579   -1.6500    0.0000 C   0  0  0  0  0  0  0  0  0  0  0  0
  1  2  1  0  0  0  0
  2  3  1  0  0  0  0
  3  4  2  0  0  0  0
  3  5  1  0  0  0  0
  5  6  1  0  0  0  0
  6  7  2  0  0  0  0
  6 22  1  0  0  0  0
  7  8  1  0  0  0  0
  8  9  2  0  0  0  0
  9 10  1  0  0  0  0
 10 11  1  0  0  0  0
 10 22  2  0  0  0  0
 11 12  1  0  0  0  0
 12 13  2  0  0  0  0
 12 14  1  0  0  0  0
 14 15  1  0  0  0  0
 15 16  2  0  0  0  0
 15 21  1  0  0  0  0
 16 17  1  0  0  0  0
 17 18  2  0  0  0  0
 18 19  1  0  0  0  0
 19 20  1  0  0  0  0
 19 21  2  0  0  0  0
M  END
$$$$
diflubenzuron
 OpenBabel03171423152D

 21 22  0  0  0  0  0  0  0  0999 V2000
   -0.7145   -3.7125    0.0000 F   0  0  0  0  0  0  0  0  0  0  0  0
   -0.7145   -2.8875    0.0000 C   0  0  0  0  0  0  0  0  0  0  0  0
   -1.4289   -2.4750    0.0000 C   0  0  0  0  0  0  0  0  0  0  0  0
   -1.4289   -1.6500    0.0000 C   0  0  0  0  0  0  0  0  0  0  0  0
   -0.7145   -1.2375    0.0000 C   0  0  0  0  0  0  0  0  0  0  0  0
    0.0000   -1.6500    0.0000 C   0  0  0  0  0  0  0  0  0  0  0  0
    0.7145   -1.2375    0.0000 F   0  0  0  0  0  0  0  0  0  0  0  0
    0.0000   -2.4750    0.0000 C   0  0  0  0  0  0  0  0  0  0  0  0
    0.7145   -2.8875    0.0000 C   0  0  0  0  0  0  0  0  0  0  0  0
    0.7145   -3.7125    0.0000 O   0  0  0  0  0  0  0  0  0  0  0  0
    1.4289   -2.4750    0.0000 N   0  0  0  0  0  0  0  0  0  0  0  0
    2.1434   -2.8875    0.0000 C   0  0  0  0  0  0  0  0  0  0  0  0
    2.1434   -3.7125    0.0000 O   0  0  0  0  0  0  0  0  0  0  0  0
    2.8579   -2.4750    0.0000 N   0  0  0  0  0  0  0  0  0  0  0  0
    3.5724   -2.8875    0.0000 C   0  0  0  0  0  0  0  0  0  0  0  0
    4.2868   -2.4750    0.0000 C   0  0  0  0  0  0  0  0  0  0  0  0
    5.0013   -2.8875    0.0000 C   0  0  0  0  0  0  0  0  0  0  0  0
    5.0013   -3.7125    0.0000 C   0  0  0  0  0  0  0  0  0  0  0  0
    5.7158   -4.1250    0.0000 Cl  0  0  0  0  0  0  0  0  0  0  0  0
    4.2868   -4.1250    0.0000 C   0  0  0  0  0  0  0  0  0  0  0  0
    3.5724   -3.7125    0.0000 C   0  0  0  0  0  0  0  0  0  0  0  0
  1  2  1  0  0  0  0
  2  3  2  0  0  0  0
  2  8  1  0  0  0  0
  3  4  1  0  0  0  0
  4  5  2  0  0  0  0
  5  6  1  0  0  0  0
  6  7  1  0  0  0  0
  6  8  2  0  0  0  0
  8  9  1  0  0  0  0
  9 10  2  0  0  0  0
  9 11  1  0  0  0  0
 11 12  1  0  0  0  0
 12 13  2  0  0  0  0
 12 14  1  0  0  0  0
 14 15  1  0  0  0  0
 15 16  2  0  0  0  0
 15 21  1  0  0  0  0
 16 17  1  0  0  0  0
 17 18  2  0  0  0  0
 18 19  1  0  0  0  0
 18 20  1  0  0  0  0
 20 21  2  0  0  0  0
M  END
$$$$
Dimethoxane
 OpenBabel03171423152D

  8  8  0  0  0  0  0  0  0  0999 V2000
    1.2448    1.8695    0.0000 C   0  0  0  0  0  0  0  0  0  0  0  0
    0.7145    1.2375    0.0000 C   0  0  0  0  0  0  0  0  0  0  0  0
    0.1842    1.8695    0.0000 C   0  0  0  0  0  0  0  0  0  0  0  0
    1.4289    0.8250    0.0000 C   0  0  0  0  0  0  0  0  0  0  0  0
    1.4289   -0.0000    0.0000 C   0  0  0  0  0  0  0  0  0  0  0  0
    0.7145   -0.4125    0.0000 C   0  0  0  0  0  0  0  0  0  0  0  0
    0.0000    0.0000    0.0000 C   0  0  0  0  0  0  0  0  0  0  0  0
    0.0000    0.8250    0.0000 O   0  0  0  0  0  0  0  0  0  0  0  0
  1  2  1  0  0  0  0
  2  3  1  0  0  0  0
  2  4  1  0  0  0  0
  2  8  1  0  0  0  0
  4  5  1  0  0  0  0
  5  6  1  0  0  0  0
  6  7  1  0  0  0  0
  7  8  1  0  0  0  0
M  END
$$$$
imazethapyr
 OpenBabel03171423152D

 21 22  0  0  0  0  0  0  0  0999 V2000
   -1.3022   -1.2269    0.0000 C   0  0  0  0  0  0  0  0  0  0  0  0
   -1.6377   -0.4732    0.0000 C   0  0  0  0  0  0  0  0  0  0  0  0
   -1.1528    0.1942    0.0000 C   0  0  0  0  0  0  0  0  0  0  0  0
   -1.4884    0.9479    0.0000 C   0  0  0  0  0  0  0  0  0  0  0  0
   -1.0034    1.6153    0.0000 C   0  0  0  0  0  0  0  0  0  0  0  0
   -1.3390    2.3690    0.0000 C   0  0  0  0  0  0  0  0  0  0  0  0
   -0.8541    3.0364    0.0000 O   0  0  0  0  0  0  0  0  0  0  0  0
   -2.1595    2.4552    0.0000 O   0  0  0  0  0  0  0  0  0  0  0  0
   -0.1830    1.5291    0.0000 C   0  0  0  0  0  0  0  0  0  0  0  0
    0.1526    0.7754    0.0000 N   0  0  0  0  0  0  0  0  0  0  0  0
   -0.3323    0.1080    0.0000 C   0  0  0  0  0  0  0  0  0  0  0  0
    0.3020    2.1965    0.0000 C   0  0  0  0  0  0  0  0  0  0  0  0
    0.0470    2.9812    0.0000 N   0  0  0  0  0  0  0  0  0  0  0  0
    0.7145    3.4661    0.0000 C   0  0  3  0  0  0  0  0  0  0  0  0
    0.1624    4.0792    0.0000 C   0  0  0  0  0  0  0  0  0  0  0  0
    1.2665    4.0792    0.0000 C   0  0  0  0  0  0  0  0  0  0  0  0
    1.0116    4.8638    0.0000 C   0  0  0  0  0  0  0  0  0  0  0  0
    2.0735    3.9076    0.0000 C   0  0  0  0  0  0  0  0  0  0  0  0
    1.3819    2.9812    0.0000 C   0  0  0  0  0  0  0  0  0  0  0  0
    2.1665    3.2361    0.0000 O   0  0  0  0  0  0  0  0  0  0  0  0
    1.1270    2.1965    0.0000 N   0  0  0  0  0  0  0  0  0  0  0  0
  1  2  1  0  0  0  0
  2  3  1  0  0  0  0
  3  4  2  0  0  0  0
  3 11  1  0  0  0  0
  4  5  1  0  0  0  0
  5  6  1  0  0  0  0
  5  9  2  0  0  0  0
  6  7  1  0  0  0  0
  6  8  2  0  0  0  0
  9 10  1  0  0  0  0
  9 12  1  0  0  0  0
 10 11  2  0  0  0  0
 12 13  2  0  0  0  0
 12 21  1  0  0  0  0
 13 14  1  0  0  0  0
 14 15  1  0  0  0  0
 14 16  1  0  0  0  0
 14 19  1  0  0  0  0
 16 17  1  0  0  0  0
 16 18  1  0  0  0  0
 19 20  2  0  0  0  0
 19 21  1  0  0  0  0
M  END
$$$$
thidiazuron
 OpenBabel03171423152D

 15 16  0  0  0  0  0  0  0  0999 V2000
    4.1801   -1.7116    0.0000 O   0  0  0  0  0  0  0  0  0  0  0  0
    3.4656   -1.2991    0.0000 C   0  0  0  0  0  0  0  0  0  0  0  0
    2.7512   -1.7116    0.0000 N   0  0  0  0  0  0  0  0  0  0  0  0
    2.7512   -2.5366    0.0000 C   0  0  0  0  0  0  0  0  0  0  0  0
    3.4186   -3.0215    0.0000 C   0  0  0  0  0  0  0  0  0  0  0  0
    3.1637   -3.8062    0.0000 N   0  0  0  0  0  0  0  0  0  0  0  0
    2.3387   -3.8062    0.0000 N   0  0  0  0  0  0  0  0  0  0  0  0
    2.0837   -3.0215    0.0000 S   0  0  0  0  0  0  0  0  0  0  0  0
    3.4656   -0.4741    0.0000 N   0  0  0  0  0  0  0  0  0  0  0  0
    4.1801   -0.0616    0.0000 C   0  0  0  0  0  0  0  0  0  0  0  0
    4.1801    0.7634    0.0000 C   0  0  0  0  0  0  0  0  0  0  0  0
    4.8946    1.1759    0.0000 C   0  0  0  0  0  0  0  0  0  0  0  0
    5.6091    0.7634    0.0000 C   0  0  0  0  0  0  0  0  0  0  0  0
    5.6091   -0.0616    0.0000 C   0  0  0  0  0  0  0  0  0  0  0  0
    4.8946   -0.4741    0.0000 C   0  0  0  0  0  0  0  0  0  0  0  0
  1  2  2  0  0  0  0
  2  3  1  0  0  0  0
  2  9  1  0  0  0  0
  3  4  1  0  0  0  0
  4  5  2  0  0  0  0
  4  8  1  0  0  0  0
  5  6  1  0  0  0  0
  6  7  2  0  0  0  0
  7  8  1  0  0  0  0
  9 10  1  0  0  0  0
 10 11  2  0  0  0  0
 10 15  1  0  0  0  0
 11 12  1  0  0  0  0
 12 13  2  0  0  0  0
 13 14  1  0  0  0  0
 14 15  2  0  0  0  0
M  END
$$$$
oxyfluorfen
 OpenBabel03171423152D

 24 25  0  0  0  0  0  0  0  0999 V2000
    2.8579    0.8250    0.0000 C   0  0  0  0  0  0  0  0  0  0  0  0
    2.8579    0.0000    0.0000 C   0  0  0  0  0  0  0  0  0  0  0  0
    2.1434   -0.4125    0.0000 O   0  0  0  0  0  0  0  0  0  0  0  0
    2.1434   -1.2375    0.0000 C   0  0  0  0  0  0  0  0  0  0  0  0
    2.8579   -1.6500    0.0000 C   0  0  0  0  0  0  0  0  0  0  0  0
    2.8579   -2.4750    0.0000 C   0  0  0  0  0  0  0  0  0  0  0  0
    2.1434   -2.8875    0.0000 C   0  0  0  0  0  0  0  0  0  0  0  0
    1.4289   -2.4750    0.0000 C   0  0  0  0  0  0  0  0  0  0  0  0
    0.7145   -2.8875    0.0000 O   0  0  0  0  0  0  0  0  0  0  0  0
    0.0000   -2.4750    0.0000 C   0  0  0  0  0  0  0  0  0  0  0  0
   -0.7145   -2.8875    0.0000 C   0  0  0  0  0  0  0  0  0  0  0  0
   -1.4289   -2.4750    0.0000 C   0  0  0  0  0  0  0  0  0  0  0  0
   -1.4289   -1.6500    0.0000 C   0  0  0  0  0  0  0  0  0  0  0  0
   -0.7145   -1.2375    0.0000 C   0  0  0  0  0  0  0  0  0  0  0  0
    0.0000   -1.6500    0.0000 C   0  0  0  0  0  0  0  0  0  0  0  0
    0.7145   -1.2375    0.0000 Cl  0  0  0  0  0  0  0  0  0  0  0  0
   -2.1434   -1.2375    0.0000 C   0  0  0  0  0  0  0  0  0  0  0  0
   -2.8579   -0.8250    0.0000 F   0  0  0  0  0  0  0  0  0  0  0  0
   -1.7309   -0.5230    0.0000 F   0  0  0  0  0  0  0  0  0  0  0  0
   -2.5559   -1.9520    0.0000 F   0  0  0  0  0  0  0  0  0  0  0  0
    1.4289   -1.6500    0.0000 C   0  0  0  0  0  0  0  0  0  0  0  0
    3.5724   -1.2375    0.0000 N   0  3  0  0  0  0  0  0  0  0  0  0
    4.2868   -1.6500    0.0000 O   0  5  0  0  0  0  0  0  0  0  0  0
    3.5724   -0.4125    0.0000 O   0  0  0  0  0  0  0  0  0  0  0  0
  1  2  1  0  0  0  0
  2  3  1  0  0  0  0
  3  4  1  0  0  0  0
  4  5  2  0  0  0  0
  4 21  1  0  0  0  0
  5  6  1  0  0  0  0
  5 22  1  0  0  0  0
  6  7  2  0  0  0  0
  7  8  1  0  0  0  0
  8  9  1  0  0  0  0
  8 21  2  0  0  0  0
  9 10  1  0  0  0  0
 10 11  2  0  0  0  0
 10 15  1  0  0  0  0
 11 12  1  0  0  0  0
 12 13  2  0  0  0  0
 13 14  1  0  0  0  0
 13 17  1  0  0  0  0
 14 15  2  0  0  0  0
 15 16  1  0  0  0  0
 17 18  1  0  0  0  0
 17 19  1  0  0  0  0
 17 20  1  0  0  0  0
 22 23  1  0  0  0  0
 22 24  2  0  0  0  0
M  CHG  2  22   1  23  -1
M  END
$$$$
cyhalothrin
 OpenBabel03171423152D

 31 33  0  0  0  0  0  0  0  0999 V2000
    0.5432   -2.6053    0.0000 C   0  0  0  0  0  0  0  0  0  0  0  0
    1.3184   -2.8875    0.0000 C   0  0  0  0  0  0  0  0  0  0  0  0
    1.1752   -3.7000    0.0000 C   0  0  0  0  0  0  0  0  0  0  0  0
    1.7309   -2.1730    0.0000 C   0  0  3  0  0  0  0  0  0  0  0  0
    1.7309   -1.3480    0.0000 C   0  0  0  0  0  0  0  0  0  0  0  0
    2.4454   -0.9355    0.0000 C   0  0  0  0  0  0  0  0  0  0  0  0
    3.1599   -1.3480    0.0000 Cl  0  0  0  0  0  0  0  0  0  0  0  0
    2.4454   -0.1105    0.0000 C   0  0  0  0  0  0  0  0  0  0  0  0
    2.4454    0.7145    0.0000 F   0  0  0  0  0  0  0  0  0  0  0  0
    1.6204   -0.1105    0.0000 F   0  0  0  0  0  0  0  0  0  0  0  0
    3.2704   -0.1105    0.0000 F   0  0  0  0  0  0  0  0  0  0  0  0
    2.1434   -2.8875    0.0000 C   0  0  3  0  0  0  0  0  0  0  0  0
    2.8579   -3.3000    0.0000 C   0  0  0  0  0  0  0  0  0  0  0  0
    3.5724   -2.8875    0.0000 O   0  0  0  0  0  0  0  0  0  0  0  0
    2.8579   -4.1250    0.0000 O   0  0  0  0  0  0  0  0  0  0  0  0
    3.5724   -4.5375    0.0000 C   0  0  3  0  0  0  0  0  0  0  0  0
    4.2868   -4.1250    0.0000 C   0  0  0  0  0  0  0  0  0  0  0  0
    5.0013   -3.7125    0.0000 N   0  0  0  0  0  0  0  0  0  0  0  0
    3.5724   -5.3625    0.0000 C   0  0  0  0  0  0  0  0  0  0  0  0
    4.2868   -5.7750    0.0000 C   0  0  0  0  0  0  0  0  0  0  0  0
    4.2868   -6.6000    0.0000 C   0  0  0  0  0  0  0  0  0  0  0  0
    5.0013   -7.0125    0.0000 O   0  0  0  0  0  0  0  0  0  0  0  0
    5.0013   -7.8375    0.0000 C   0  0  0  0  0  0  0  0  0  0  0  0
    5.7158   -8.2500    0.0000 C   0  0  0  0  0  0  0  0  0  0  0  0
    5.7158   -9.0750    0.0000 C   0  0  0  0  0  0  0  0  0  0  0  0
    5.0013   -9.4875    0.0000 C   0  0  0  0  0  0  0  0  0  0  0  0
    4.2868   -9.0750    0.0000 C   0  0  0  0  0  0  0  0  0  0  0  0
    4.2868   -8.2500    0.0000 C   0  0  0  0  0  0  0  0  0  0  0  0
    3.5724   -7.0125    0.0000 C   0  0  0  0  0  0  0  0  0  0  0  0
    2.8579   -6.6000    0.0000 C   0  0  0  0  0  0  0  0  0  0  0  0
    2.8579   -5.7750    0.0000 C   0  0  0  0  0  0  0  0  0  0  0  0
  1  2  1  0  0  0  0
  2  3  1  0  0  0  0
  2  4  1  0  0  0  0
  2 12  1  0  0  0  0
  4  5  1  0  0  0  0
  4 12  1  0  0  0  0
  5  6  2  0  0  0  0
  6  7  1  0  0  0  0
  6  8  1  0  0  0  0
  8  9  1  0  0  0  0
  8 10  1  0  0  0  0
  8 11  1  0  0  0  0
 12 13  1  0  0  0  0
 13 14  2  0  0  0  0
 13 15  1  0  0  0  0
 15 16  1  0  0  0  0
 16 17  1  0  0  0  0
 16 19  1  0  0  0  0
 17 18  3  0  0  0  0
 19 20  2  0  0  0  0
 19 31  1  0  0  0  0
 20 21  1  0  0  0  0
 21 22  1  0  0  0  0
 21 29  2  0  0  0  0
 22 23  1  0  0  0  0
 23 24  2  0  0  0  0
 23 28  1  0  0  0  0
 24 25  1  0  0  0  0
 25 26  2  0  0  0  0
 26 27  1  0  0  0  0
 27 28  2  0  0  0  0
 29 30  1  0  0  0  0
 30 31  2  0  0  0  0
M  END
$$$$
propetamphos
 OpenBabel03171423152D

 17 16  0  0  0  0  0  0  0  0999 V2000
    4.1250    1.4289    0.0000 C   0  0  0  0  0  0  0  0  0  0  0  0
    3.3000    1.4289    0.0000 C   0  0  0  0  0  0  0  0  0  0  0  0
    2.8875    0.7145    0.0000 N   0  0  0  0  0  0  0  0  0  0  0  0
    2.0625    0.7145    0.0000 P   0  0  3  0  0  0  0  0  0  0  0  0
    2.0625    1.5395    0.0000 S   0  0  0  0  0  0  0  0  0  0  0  0
    2.0625   -0.1105    0.0000 O   0  0  0  0  0  0  0  0  0  0  0  0
    2.7770   -0.5230    0.0000 C   0  0  0  0  0  0  0  0  0  0  0  0
    1.2375    0.7145    0.0000 O   0  0  0  0  0  0  0  0  0  0  0  0
    0.8250    0.0000    0.0000 C   0  0  0  0  0  0  0  0  0  0  0  0
    1.2375   -0.7145    0.0000 C   0  0  0  0  0  0  0  0  0  0  0  0
    0.0000    0.0000    0.0000 C   0  0  0  0  0  0  0  0  0  0  0  0
   -0.4125   -0.7145    0.0000 C   0  0  0  0  0  0  0  0  0  0  0  0
   -1.2375   -0.7145    0.0000 O   0  0  0  0  0  0  0  0  0  0  0  0
    0.0000   -1.4289    0.0000 O   0  0  0  0  0  0  0  0  0  0  0  0
   -0.4125   -2.1434    0.0000 C   0  0  0  0  0  0  0  0  0  0  0  0
    0.0000   -2.8579    0.0000 C   0  0  0  0  0  0  0  0  0  0  0  0
   -1.2375   -2.1434    0.0000 C   0  0  0  0  0  0  0  0  0  0  0  0
  1  2  1  0  0  0  0
  2  3  1  0  0  0  0
  3  4  1  0  0  0  0
  4  5  2  0  0  0  0
  4  6  1  0  0  0  0
  4  8  1  0  0  0  0
  6  7  1  0  0  0  0
  8  9  1  0  0  0  0
  9 10  1  0  0  0  0
  9 11  2  0  0  0  0
 11 12  1  0  0  0  0
 12 13  2  0  0  0  0
 12 14  1  0  0  0  0
 14 15  1  0  0  0  0
 15 16  1  0  0  0  0
 15 17  1  0  0  0  0
M  END
>  <type>
common

$$$$
Ethyl oleate
 OpenBabel03171423152D

 22 21  0  0  0  0  0  0  0  0999 V2000
   -0.0513    8.2204    0.0000 C   0  0  0  0  0  0  0  0  0  0  0  0
    0.6632    7.8079    0.0000 C   0  0  0  0  0  0  0  0  0  0  0  0
    0.6632    6.9829    0.0000 C   0  0  0  0  0  0  0  0  0  0  0  0
    1.3776    6.5704    0.0000 C   0  0  0  0  0  0  0  0  0  0  0  0
    1.3776    5.7454    0.0000 C   0  0  0  0  0  0  0  0  0  0  0  0
    2.0921    5.3329    0.0000 C   0  0  0  0  0  0  0  0  0  0  0  0
    2.0921    4.5079    0.0000 C   0  0  0  0  0  0  0  0  0  0  0  0
    2.8066    4.0954    0.0000 C   0  0  0  0  0  0  0  0  0  0  0  0
    2.8066    3.2704    0.0000 C   0  0  0  0  0  0  0  0  0  0  0  0
    3.5211    2.8579    0.0000 C   0  0  0  0  0  0  0  0  0  0  0  0
    4.2355    3.2704    0.0000 C   0  0  0  0  0  0  0  0  0  0  0  0
    4.9500    2.8579    0.0000 C   0  0  0  0  0  0  0  0  0  0  0  0
    5.6645    3.2704    0.0000 C   0  0  0  0  0  0  0  0  0  0  0  0
    6.3789    2.8579    0.0000 C   0  0  0  0  0  0  0  0  0  0  0  0
    7.0934    3.2704    0.0000 C   0  0  0  0  0  0  0  0  0  0  0  0
    7.8079    2.8579    0.0000 C   0  0  0  0  0  0  0  0  0  0  0  0
    8.5224    3.2704    0.0000 C   0  0  0  0  0  0  0  0  0  0  0  0
    9.2368    2.8579    0.0000 C   0  0  0  0  0  0  0  0  0  0  0  0
    9.2368    2.0329    0.0000 O   0  0  0  0  0  0  0  0  0  0  0  0
    9.9513    3.2704    0.0000 O   0  0  0  0  0  0  0  0  0  0  0  0
   10.6658    2.8579    0.0000 C   0  0  0  0  0  0  0  0  0  0  0  0
   11.3802    3.2704    0.0000 C   0  0  0  0  0  0  0  0  0  0  0  0
  1  2  1  0  0  0  0
  2  3  1  0  0  0  0
  3  4  1  0  0  0  0
  4  5  1  0  0  0  0
  5  6  1  0  0  0  0
  6  7  1  0  0  0  0
  7  8  1  0  0  0  0
  8  9  1  0  0  0  0
  9 10  2  0  0  0  0
 10 11  1  0  0  0  0
 11 12  1  0  0  0  0
 12 13  1  0  0  0  0
 13 14  1  0  0  0  0
 14 15  1  0  0  0  0
 15 16  1  0  0  0  0
 16 17  1  0  0  0  0
 17 18  1  0  0  0  0
 18 19  2  0  0  0  0
 18 20  1  0  0  0  0
 20 21  1  0  0  0  0
 21 22  1  0  0  0  0
M  END
$$$$
Strychnine
 OpenBabel03171423152D

 25 31  0  0  1  0  0  0  0  0999 V2000
    2.9057   -4.2339    0.0000 O   0  0  0  0  0  0  0  0  0  0  0  0
    3.3565   -3.5430    0.0000 C   0  0  0  0  0  0  0  0  0  0  0  0
    4.2004   -3.5840    0.0000 C   0  0  0  0  0  0  0  0  0  0  0  0
    4.7270   -2.9050    0.0000 C   0  0  2  0  0  0  0  0  0  0  0  0
    5.5824   -2.8629    0.0000 O   0  0  0  0  0  0  0  0  0  0  0  0
    6.1547   -2.2055    0.0000 C   0  0  0  0  0  0  0  0  0  0  0  0
    5.9979   -1.3846    0.0000 C   0  0  0  0  0  0  0  0  0  0  0  0
    5.3209   -0.9057    0.0000 C   0  0  0  0  0  0  0  0  0  0  0  0
    4.8122   -0.0590    0.0000 C   0  0  0  0  0  0  0  0  0  0  0  0
    3.8987   -0.1040    0.0000 N   0  0  3  0  0  0  0  0  0  0  0  0
    3.0220    0.0334    0.0000 C   0  0  0  0  0  0  0  0  0  0  0  0
    2.5627   -0.6724    0.0000 C   0  0  0  0  0  0  0  0  0  0  0  0
    3.1064   -1.3552    0.0000 C   0  0  1  0  0  0  0  0  0  0  0  0
    3.8378   -0.8821    0.0000 C   0  0  2  0  0  0  0  0  0  0  0  0
    4.7661   -1.0757    0.0000 C   0  0  0  0  0  0  0  0  0  0  0  0
    4.7061   -1.5940    0.0000 C   0  0  2  0  0  0  0  0  0  0  0  0
    4.3043   -2.2493    0.0000 C   0  0  2  0  0  0  0  0  0  0  0  0
    3.4728   -2.1228    0.0000 C   0  0  2  0  0  0  0  0  0  0  0  0
    2.9802   -2.7893    0.0000 N   0  0  0  0  0  0  0  0  0  0  0  0
    2.1966   -2.4837    0.0000 C   0  0  0  0  0  0  0  0  0  0  0  0
    1.4514   -2.8376    0.0000 C   0  0  0  0  0  0  0  0  0  0  0  0
    0.7722   -2.3692    0.0000 C   0  0  0  0  0  0  0  0  0  0  0  0
    0.8383   -1.5469    0.0000 C   0  0  0  0  0  0  0  0  0  0  0  0
    1.5835   -1.1929    0.0000 C   0  0  0  0  0  0  0  0  0  0  0  0
    2.2626   -1.6613    0.0000 C   0  0  0  0  0  0  0  0  0  0  0  0
  1  2  2  0  0  0  0
  2  3  1  0  0  0  0
  2 19  1  0  0  0  0
  4  3  1  1  0  0  0
  4  5  1  0  0  0  0
  5  6  1  0  0  0  0
  6  7  1  0  0  0  0
  7  8  2  0  0  0  0
  8  9  1  0  0  0  0
  9 10  1  0  0  0  0
 10 11  1  0  0  0  0
 10 14  1  0  0  0  0
 11 12  1  0  0  0  0
 13 12  1  1  0  0  0
 13 14  1  0  0  0  0
 13 18  1  0  0  0  0
 13 25  1  0  0  0  0
 14 15  1  1  0  0  0
 16  8  1  1  0  0  0
 16 15  1  0  0  0  0
 17  4  1  1  0  0  0
 17 16  1  0  0  0  0
 17 18  1  0  0  0  0
 18 19  1  6  0  0  0
 19 20  1  0  0  0  0
 20 21  2  0  0  0  0
 20 25  1  0  0  0  0
 21 22  1  0  0  0  0
 22 23  2  0  0  0  0
 23 24  1  0  0  0  0
 24 25  2  0  0  0  0
M  END
$$$$
Acrylic acid
 OpenBabel03171423152D

  5  4  0  0  0  0  0  0  0  0999 V2000
    2.0625   -0.7145    0.0000 O   0  0  0  0  0  0  0  0  0  0  0  0
    1.2375   -0.7145    0.0000 C   0  0  0  0  0  0  0  0  0  0  0  0
    0.8250   -1.4289    0.0000 O   0  0  0  0  0  0  0  0  0  0  0  0
    0.8250    0.0000    0.0000 C   0  0  0  0  0  0  0  0  0  0  0  0
    0.0000    0.0000    0.0000 C   0  0  0  0  0  0  0  0  0  0  0  0
  1  2  1  0  0  0  0
  2  3  2  0  0  0  0
  2  4  1  0  0  0  0
  4  5  2  0  0  0  0
M  END
$$$$
Deltamethrin
 OpenBabel03171423152D

 28 30  0  0  1  0  0  0  0  0999 V2000
    2.5279   -4.1323    0.0000 C   0  0  0  0  0  0  0  0  0  0  0  0
    3.1599   -3.6020    0.0000 C   0  0  0  0  0  0  0  0  0  0  0  0
    3.7918   -4.1323    0.0000 C   0  0  0  0  0  0  0  0  0  0  0  0
    2.7474   -2.8875    0.0000 C   0  0  1  0  0  0  0  0  0  0  0  0
    2.0329   -2.4750    0.0000 C   0  0  0  0  0  0  0  0  0  0  0  0
    2.0329   -1.6500    0.0000 C   0  0  0  0  0  0  0  0  0  0  0  0
    1.3184   -1.2375    0.0000 Br  0  0  0  0  0  0  0  0  0  0  0  0
    2.7474   -1.2375    0.0000 Br  0  0  0  0  0  0  0  0  0  0  0  0
    3.5724   -2.8875    0.0000 C   0  0  1  0  0  0  0  0  0  0  0  0
    4.2868   -2.4750    0.0000 C   0  0  0  0  0  0  0  0  0  0  0  0
    5.0013   -2.8875    0.0000 O   0  0  0  0  0  0  0  0  0  0  0  0
    4.2868   -1.6500    0.0000 O   0  0  0  0  0  0  0  0  0  0  0  0
    5.0013   -1.2375    0.0000 C   0  0  2  0  0  0  0  0  0  0  0  0
    5.7158   -1.6500    0.0000 C   0  0  0  0  0  0  0  0  0  0  0  0
    6.4302   -2.0625    0.0000 N   0  0  0  0  0  0  0  0  0  0  0  0
    5.0013   -0.4125    0.0000 C   0  0  0  0  0  0  0  0  0  0  0  0
    4.2868    0.0000    0.0000 C   0  0  0  0  0  0  0  0  0  0  0  0
    4.2868    0.8250    0.0000 C   0  0  0  0  0  0  0  0  0  0  0  0
    5.0013    1.2375    0.0000 C   0  0  0  0  0  0  0  0  0  0  0  0
    5.7158    0.8250    0.0000 C   0  0  0  0  0  0  0  0  0  0  0  0
    6.4302    1.2375    0.0000 O   0  0  0  0  0  0  0  0  0  0  0  0
    7.1447    0.8250    0.0000 C   0  0  0  0  0  0  0  0  0  0  0  0
    7.8592    1.2375    0.0000 C   0  0  0  0  0  0  0  0  0  0  0  0
    8.5737    0.8250    0.0000 C   0  0  0  0  0  0  0  0  0  0  0  0
    8.5737    0.0000    0.0000 C   0  0  0  0  0  0  0  0  0  0  0  0
    7.8592   -0.4125    0.0000 C   0  0  0  0  0  0  0  0  0  0  0  0
    7.1447    0.0000    0.0000 C   0  0  0  0  0  0  0  0  0  0  0  0
    5.7158    0.0000    0.0000 C   0  0  0  0  0  0  0  0  0  0  0  0
  1  2  1  0  0  0  0
  2  3  1  0  0  0  0
  2  4  1  0  0  0  0
  2  9  1  0  0  0  0
  4  5  1  1  0  0  0
  4  9  1  0  0  0  0
  5  6  2  0  0  0  0
  6  7  1  0  0  0  0
  6  8  1  0  0  0  0
  9 10  1  1  0  0  0
 10 11  2  0  0  0  0
 10 12  1  0  0  0  0
 13 12  1  1  0  0  0
 13 14  1  0  0  0  0
 13 16  1  0  0  0  0
 14 15  3  0  0  0  0
 16 17  2  0  0  0  0
 16 28  1  0  0  0  0
 17 18  1  0  0  0  0
 18 19  2  0  0  0  0
 19 20  1  0  0  0  0
 20 21  1  0  0  0  0
 20 28  2  0  0  0  0
 21 22  1  0  0  0  0
 22 23  2  0  0  0  0
 22 27  1  0  0  0  0
 23 24  1  0  0  0  0
 24 25  2  0  0  0  0
 25 26  1  0  0  0  0
 26 27  2  0  0  0  0
M  END
$$$$
fluroxypyr
 OpenBabel03171423152D

 15 15  0  0  0  0  0  0  0  0999 V2000
    0.7145    2.0625    0.0000 N   0  0  0  0  0  0  0  0  0  0  0  0
    0.7145    1.2375    0.0000 C   0  0  0  0  0  0  0  0  0  0  0  0
    1.4289    0.8250    0.0000 C   0  0  0  0  0  0  0  0  0  0  0  0
    2.1434    1.2375    0.0000 Cl  0  0  0  0  0  0  0  0  0  0  0  0
    1.4289   -0.0000    0.0000 C   0  0  0  0  0  0  0  0  0  0  0  0
    2.1434   -0.4125    0.0000 F   0  0  0  0  0  0  0  0  0  0  0  0
    0.7145   -0.4125    0.0000 N   0  0  0  0  0  0  0  0  0  0  0  0
    0.0000    0.0000    0.0000 C   0  0  0  0  0  0  0  0  0  0  0  0
   -0.7145   -0.4125    0.0000 O   0  0  0  0  0  0  0  0  0  0  0  0
   -0.7145   -1.2375    0.0000 C   0  0  0  0  0  0  0  0  0  0  0  0
   -1.4289   -1.6500    0.0000 C   0  0  0  0  0  0  0  0  0  0  0  0
   -1.4289   -2.4750    0.0000 O   0  0  0  0  0  0  0  0  0  0  0  0
   -2.1434   -1.2375    0.0000 O   0  0  0  0  0  0  0  0  0  0  0  0
    0.0000    0.8250    0.0000 C   0  0  0  0  0  0  0  0  0  0  0  0
   -0.7145    1.2375    0.0000 Cl  0  0  0  0  0  0  0  0  0  0  0  0
  1  2  1  0  0  0  0
  2  3  2  0  0  0  0
  2 14  1  0  0  0  0
  3  4  1  0  0  0  0
  3  5  1  0  0  0  0
  5  6  1  0  0  0  0
  5  7  2  0  0  0  0
  7  8  1  0  0  0  0
  8  9  1  0  0  0  0
  8 14  2  0  0  0  0
  9 10  1  0  0  0  0
 10 11  1  0  0  0  0
 11 12  1  0  0  0  0
 11 13  2  0  0  0  0
 14 15  1  0  0  0  0
M  END
$$$$
peroxymonosulfate
 OpenBabel03171423152D

  6  5  0  0  0  0  0  0  0  0999 V2000
    0.1105   -1.2375    0.0000 O   0  5  0  0  0  0  0  0  0  0  0  0
    0.8250   -0.8250    0.0000 O   0  0  0  0  0  0  0  0  0  0  0  0
    0.8250    0.0000    0.0000 S   0  0  0  0  0  0  0  0  0  0  0  0
    0.8250    0.8250    0.0000 O   0  5  0  0  0  0  0  0  0  0  0  0
    1.6500   -0.0000    0.0000 O   0  0  0  0  0  0  0  0  0  0  0  0
    0.0000    0.0000    0.0000 O   0  0  0  0  0  0  0  0  0  0  0  0
  1  2  1  0  0  0  0
  2  3  1  0  0  0  0
  3  4  1  0  0  0  0
  3  5  2  0  0  0  0
  3  6  2  0  0  0  0
M  CHG  2   1  -1   4  -1
M  END
$$$$
Denatonium
 OpenBabel03171423152D

 33 34  0  0  0  0  0  0  0  0999 V2000
   -0.7145    1.4208    0.0000 O   0  5  0  0  0  0  0  0  0  0  0  0
    0.0000    1.0083    0.0000 C   0  0  0  0  0  0  0  0  0  0  0  0
    0.7145    1.4208    0.0000 O   0  0  0  0  0  0  0  0  0  0  0  0
   -0.0000    0.1833    0.0000 C   0  0  0  0  0  0  0  0  0  0  0  0
    0.7145   -0.2292    0.0000 C   0  0  0  0  0  0  0  0  0  0  0  0
    0.7145   -1.0542    0.0000 C   0  0  0  0  0  0  0  0  0  0  0  0
   -0.0000   -1.4667    0.0000 C   0  0  0  0  0  0  0  0  0  0  0  0
   -0.7145   -1.0542    0.0000 C   0  0  0  0  0  0  0  0  0  0  0  0
   -0.7145   -0.2292    0.0000 C   0  0  0  0  0  0  0  0  0  0  0  0
    3.0273   -0.0098    0.0000 C   0  0  0  0  0  0  0  0  0  0  0  0
    3.8523   -0.0098    0.0000 C   0  0  0  0  0  0  0  0  0  0  0  0
    4.2648    0.7047    0.0000 N   0  3  0  0  0  0  0  0  0  0  0  0
    4.6773    1.4192    0.0000 C   0  0  0  0  0  0  0  0  0  0  0  0
    5.5023    1.4192    0.0000 C   0  0  0  0  0  0  0  0  0  0  0  0
    4.9793    0.2922    0.0000 C   0  0  0  0  0  0  0  0  0  0  0  0
    4.9793   -0.5328    0.0000 C   0  0  0  0  0  0  0  0  0  0  0  0
    4.2648   -0.9453    0.0000 O   0  0  0  0  0  0  0  0  0  0  0  0
    5.6938   -0.9453    0.0000 N   0  0  0  0  0  0  0  0  0  0  0  0
    5.6938   -1.7703    0.0000 C   0  0  0  0  0  0  0  0  0  0  0  0
    6.4083   -2.1828    0.0000 C   0  0  0  0  0  0  0  0  0  0  0  0
    7.1227   -1.7703    0.0000 C   0  0  0  0  0  0  0  0  0  0  0  0
    6.4083   -3.0078    0.0000 C   0  0  0  0  0  0  0  0  0  0  0  0
    5.6938   -3.4203    0.0000 C   0  0  0  0  0  0  0  0  0  0  0  0
    4.9793   -3.0078    0.0000 C   0  0  0  0  0  0  0  0  0  0  0  0
    4.9793   -2.1828    0.0000 C   0  0  0  0  0  0  0  0  0  0  0  0
    4.2648   -1.7703    0.0000 C   0  0  0  0  0  0  0  0  0  0  0  0
    3.5504    1.1172    0.0000 C   0  0  0  0  0  0  0  0  0  0  0  0
    3.5504    1.9422    0.0000 C   0  0  0  0  0  0  0  0  0  0  0  0
    2.8359    2.3547    0.0000 C   0  0  0  0  0  0  0  0  0  0  0  0
    2.8359    3.1797    0.0000 C   0  0  0  0  0  0  0  0  0  0  0  0
    3.5504    3.5922    0.0000 C   0  0  0  0  0  0  0  0  0  0  0  0
    4.2648    3.1797    0.0000 C   0  0  0  0  0  0  0  0  0  0  0  0
    4.2648    2.3547    0.0000 C   0  0  0  0  0  0  0  0  0  0  0  0
  1  2  1  0  0  0  0
  2  3  2  0  0  0  0
  2  4  1  0  0  0  0
  4  5  2  0  0  0  0
  4  9  1  0  0  0  0
  5  6  1  0  0  0  0
  6  7  2  0  0  0  0
  7  8  1  0  0  0  0
  8  9  2  0  0  0  0
 10 11  1  0  0  0  0
 11 12  1  0  0  0  0
 12 13  1  0  0  0  0
 12 15  1  0  0  0  0
 12 27  1  0  0  0  0
 13 14  1  0  0  0  0
 15 16  1  0  0  0  0
 16 17  2  0  0  0  0
 16 18  1  0  0  0  0
 18 19  1  0  0  0  0
 19 20  2  0  0  0  0
 19 25  1  0  0  0  0
 20 21  1  0  0  0  0
 20 22  1  0  0  0  0
 22 23  2  0  0  0  0
 23 24  1  0  0  0  0
 24 25  2  0  0  0  0
 25 26  1  0  0  0  0
 27 28  1  0  0  0  0
 28 29  2  0  0  0  0
 28 33  1  0  0  0  0
 29 30  1  0  0  0  0
 30 31  2  0  0  0  0
 31 32  1  0  0  0  0
 32 33  2  0  0  0  0
M  CHG  2   1  -1  12   1
M  END
$$$$
ethanolamine
 OpenBabel03171423152D

  4  3  0  0  0  0  0  0  0  0999 V2000
    1.2375    0.7145    0.0000 C   0  0  0  0  0  0  0  0  0  0  0  0
    0.8250    0.0000    0.0000 C   0  0  3  0  0  0  0  0  0  0  0  0
    1.2375   -0.7145    0.0000 N   0  0  0  0  0  0  0  0  0  0  0  0
    0.0000    0.0000    0.0000 O   0  0  0  0  0  0  0  0  0  0  0  0
  1  2  1  0  0  0  0
  2  3  1  0  0  0  0
  2  4  1  0  0  0  0
M  END
$$$$
desmedipham
 OpenBabel03171423152D

 22 23  0  0  0  0  0  0  0  0999 V2000
   -4.2868   -4.9500    0.0000 C   0  0  0  0  0  0  0  0  0  0  0  0
   -3.5724   -4.5375    0.0000 C   0  0  0  0  0  0  0  0  0  0  0  0
   -2.8579   -4.9500    0.0000 O   0  0  0  0  0  0  0  0  0  0  0  0
   -2.1434   -4.5375    0.0000 C   0  0  0  0  0  0  0  0  0  0  0  0
   -2.1434   -3.7125    0.0000 O   0  0  0  0  0  0  0  0  0  0  0  0
   -1.4289   -4.9500    0.0000 N   0  0  0  0  0  0  0  0  0  0  0  0
   -0.7145   -4.5375    0.0000 C   0  0  0  0  0  0  0  0  0  0  0  0
   -0.7145   -3.7125    0.0000 C   0  0  0  0  0  0  0  0  0  0  0  0
    0.0000   -3.3000    0.0000 C   0  0  0  0  0  0  0  0  0  0  0  0
    0.7145   -3.7125    0.0000 C   0  0  0  0  0  0  0  0  0  0  0  0
    0.7145   -4.5375    0.0000 C   0  0  0  0  0  0  0  0  0  0  0  0
    1.4289   -4.9500    0.0000 O   0  0  0  0  0  0  0  0  0  0  0  0
    1.4289   -5.7750    0.0000 C   0  0  0  0  0  0  0  0  0  0  0  0
    0.7145   -6.1875    0.0000 O   0  0  0  0  0  0  0  0  0  0  0  0
    2.1434   -6.1875    0.0000 N   0  0  0  0  0  0  0  0  0  0  0  0
    2.8579   -5.7750    0.0000 C   0  0  0  0  0  0  0  0  0  0  0  0
    2.8579   -4.9500    0.0000 C   0  0  0  0  0  0  0  0  0  0  0  0
    3.5724   -4.5375    0.0000 C   0  0  0  0  0  0  0  0  0  0  0  0
    4.2868   -4.9500    0.0000 C   0  0  0  0  0  0  0  0  0  0  0  0
    4.2868   -5.7750    0.0000 C   0  0  0  0  0  0  0  0  0  0  0  0
    3.5724   -6.1875    0.0000 C   0  0  0  0  0  0  0  0  0  0  0  0
    0.0000   -4.9500    0.0000 C   0  0  0  0  0  0  0  0  0  0  0  0
  1  2  1  0  0  0  0
  2  3  1  0  0  0  0
  3  4  1  0  0  0  0
  4  5  2  0  0  0  0
  4  6  1  0  0  0  0
  6  7  1  0  0  0  0
  7  8  2  0  0  0  0
  7 22  1  0  0  0  0
  8  9  1  0  0  0  0
  9 10  2  0  0  0  0
 10 11  1  0  0  0  0
 11 12  1  0  0  0  0
 11 22  2  0  0  0  0
 12 13  1  0  0  0  0
 13 14  2  0  0  0  0
 13 15  1  0  0  0  0
 15 16  1  0  0  0  0
 16 17  2  0  0  0  0
 16 21  1  0  0  0  0
 17 18  1  0  0  0  0
 18 19  2  0  0  0  0
 19 20  1  0  0  0  0
 20 21  2  0  0  0  0
M  END
$$$$
boscalid
 OpenBabel03171423152D

 23 25  0  0  0  0  0  0  0  0999 V2000
    3.5724   -0.4125    0.0000 Cl  0  0  0  0  0  0  0  0  0  0  0  0
    3.5724   -1.2375    0.0000 C   0  0  0  0  0  0  0  0  0  0  0  0
    4.2868   -1.6500    0.0000 C   0  0  0  0  0  0  0  0  0  0  0  0
    4.2868   -2.4750    0.0000 C   0  0  0  0  0  0  0  0  0  0  0  0
    3.5724   -2.8875    0.0000 C   0  0  0  0  0  0  0  0  0  0  0  0
    2.8579   -2.4750    0.0000 C   0  0  0  0  0  0  0  0  0  0  0  0
    2.8579   -1.6500    0.0000 C   0  0  0  0  0  0  0  0  0  0  0  0
    3.5724   -3.7125    0.0000 C   0  0  0  0  0  0  0  0  0  0  0  0
    4.2868   -4.1250    0.0000 C   0  0  0  0  0  0  0  0  0  0  0  0
    4.2868   -4.9500    0.0000 C   0  0  0  0  0  0  0  0  0  0  0  0
    3.5724   -5.3625    0.0000 C   0  0  0  0  0  0  0  0  0  0  0  0
    2.8579   -4.9500    0.0000 C   0  0  0  0  0  0  0  0  0  0  0  0
    2.8579   -4.1250    0.0000 C   0  0  0  0  0  0  0  0  0  0  0  0
    2.1434   -3.7125    0.0000 N   0  0  0  0  0  0  0  0  0  0  0  0
    1.4289   -4.1250    0.0000 C   0  0  0  0  0  0  0  0  0  0  0  0
    1.4289   -4.9500    0.0000 O   0  0  0  0  0  0  0  0  0  0  0  0
    0.7145   -3.7125    0.0000 C   0  0  0  0  0  0  0  0  0  0  0  0
   -0.0000   -4.1250    0.0000 C   0  0  0  0  0  0  0  0  0  0  0  0
   -0.7145   -3.7125    0.0000 C   0  0  0  0  0  0  0  0  0  0  0  0
   -0.7145   -2.8875    0.0000 C   0  0  0  0  0  0  0  0  0  0  0  0
    0.0000   -2.4750    0.0000 N   0  0  0  0  0  0  0  0  0  0  0  0
    0.7145   -2.8875    0.0000 C   0  0  0  0  0  0  0  0  0  0  0  0
    1.4289   -2.4750    0.0000 Cl  0  0  0  0  0  0  0  0  0  0  0  0
  1  2  1  0  0  0  0
  2  3  2  0  0  0  0
  2  7  1  0  0  0  0
  3  4  1  0  0  0  0
  4  5  2  0  0  0  0
  5  6  1  0  0  0  0
  5  8  1  0  0  0  0
  6  7  2  0  0  0  0
  8  9  2  0  0  0  0
  8 13  1  0  0  0  0
  9 10  1  0  0  0  0
 10 11  2  0  0  0  0
 11 12  1  0  0  0  0
 12 13  2  0  0  0  0
 13 14  1  0  0  0  0
 14 15  1  0  0  0  0
 15 16  2  0  0  0  0
 15 17  1  0  0  0  0
 17 18  2  0  0  0  0
 17 22  1  0  0  0  0
 18 19  1  0  0  0  0
 19 20  2  0  0  0  0
 20 21  1  0  0  0  0
 21 22  2  0  0  0  0
 22 23  1  0  0  0  0
M  END
$$$$
triisopropylamine
 OpenBabel03171423152D

 10  9  0  0  0  0  0  0  0  0999 V2000
    0.0000   -1.4289    0.0000 C   0  0  0  0  0  0  0  0  0  0  0  0
    0.8250   -1.4289    0.0000 C   0  0  0  0  0  0  0  0  0  0  0  0
    1.2375   -2.1434    0.0000 C   0  0  0  0  0  0  0  0  0  0  0  0
    1.2375   -0.7145    0.0000 N   0  0  0  0  0  0  0  0  0  0  0  0
    2.0625   -0.7145    0.0000 C   0  0  0  0  0  0  0  0  0  0  0  0
    2.4750    0.0000    0.0000 C   0  0  0  0  0  0  0  0  0  0  0  0
    2.4750   -1.4289    0.0000 C   0  0  0  0  0  0  0  0  0  0  0  0
    0.8250    0.0000    0.0000 C   0  0  0  0  0  0  0  0  0  0  0  0
    1.2375    0.7145    0.0000 C   0  0  0  0  0  0  0  0  0  0  0  0
    0.0000    0.0000    0.0000 C   0  0  0  0  0  0  0  0  0  0  0  0
  1  2  1  0  0  0  0
  2  3  1  0  0  0  0
  2  4  1  0  0  0  0
  4  5  1  0  0  0  0
  4  8  1  0  0  0  0
  5  6  1  0  0  0  0
  5  7  1  0  0  0  0
  8  9  1  0  0  0  0
  8 10  1  0  0  0  0
M  END
$$$$
bromadiolone
 OpenBabel03171423152D

 35 39  0  0  0  0  0  0  0  0999 V2000
   -1.4289    0.8250    0.0000 O   0  0  0  0  0  0  0  0  0  0  0  0
   -0.7145    1.2375    0.0000 C   0  0  3  0  0  0  0  0  0  0  0  0
    0.0000    0.8250    0.0000 C   0  0  0  0  0  0  0  0  0  0  0  0
    0.0000    0.0000    0.0000 C   0  0  3  0  0  0  0  0  0  0  0  0
   -0.7145   -0.4125    0.0000 C   0  0  0  0  0  0  0  0  0  0  0  0
   -0.7145   -1.2375    0.0000 C   0  0  0  0  0  0  0  0  0  0  0  0
   -1.4289   -1.6500    0.0000 C   0  0  0  0  0  0  0  0  0  0  0  0
   -2.1434   -1.2375    0.0000 C   0  0  0  0  0  0  0  0  0  0  0  0
   -2.1434   -0.4125    0.0000 C   0  0  0  0  0  0  0  0  0  0  0  0
   -1.4289    0.0000    0.0000 C   0  0  0  0  0  0  0  0  0  0  0  0
    0.7145   -0.4125    0.0000 C   0  0  0  0  0  0  0  0  0  0  0  0
    1.4289    0.0000    0.0000 C   0  0  0  0  0  0  0  0  0  0  0  0
    1.4289    0.8250    0.0000 O   0  0  0  0  0  0  0  0  0  0  0  0
    2.1434   -0.4125    0.0000 C   0  0  0  0  0  0  0  0  0  0  0  0
    2.8579    0.0000    0.0000 C   0  0  0  0  0  0  0  0  0  0  0  0
    3.5724   -0.4125    0.0000 C   0  0  0  0  0  0  0  0  0  0  0  0
    3.5724   -1.2375    0.0000 C   0  0  0  0  0  0  0  0  0  0  0  0
    2.8579   -1.6500    0.0000 C   0  0  0  0  0  0  0  0  0  0  0  0
    2.1434   -1.2375    0.0000 C   0  0  0  0  0  0  0  0  0  0  0  0
    1.4289   -1.6500    0.0000 O   0  0  0  0  0  0  0  0  0  0  0  0
    0.7145   -1.2375    0.0000 C   0  0  0  0  0  0  0  0  0  0  0  0
    0.0000   -1.6500    0.0000 O   0  0  0  0  0  0  0  0  0  0  0  0
   -0.7145    2.0625    0.0000 C   0  0  0  0  0  0  0  0  0  0  0  0
   -1.4289    2.4750    0.0000 C   0  0  0  0  0  0  0  0  0  0  0  0
   -1.4289    3.3000    0.0000 C   0  0  0  0  0  0  0  0  0  0  0  0
   -0.7145    3.7125    0.0000 C   0  0  0  0  0  0  0  0  0  0  0  0
    0.0000    3.3000    0.0000 C   0  0  0  0  0  0  0  0  0  0  0  0
    0.0000    2.4750    0.0000 C   0  0  0  0  0  0  0  0  0  0  0  0
   -0.7145    4.5375    0.0000 C   0  0  0  0  0  0  0  0  0  0  0  0
   -1.4289    4.9500    0.0000 C   0  0  0  0  0  0  0  0  0  0  0  0
   -1.4289    5.7750    0.0000 C   0  0  0  0  0  0  0  0  0  0  0  0
   -0.7145    6.1875    0.0000 C   0  0  0  0  0  0  0  0  0  0  0  0
   -0.7145    7.0125    0.0000 Br  0  0  0  0  0  0  0  0  0  0  0  0
    0.0000    5.7750    0.0000 C   0  0  0  0  0  0  0  0  0  0  0  0
    0.0000    4.9500    0.0000 C   0  0  0  0  0  0  0  0  0  0  0  0
  1  2  1  0  0  0  0
  2  3  1  0  0  0  0
  2 23  1  0  0  0  0
  3  4  1  0  0  0  0
  4  5  1  0  0  0  0
  4 11  1  0  0  0  0
  5  6  2  0  0  0  0
  5 10  1  0  0  0  0
  6  7  1  0  0  0  0
  7  8  2  0  0  0  0
  8  9  1  0  0  0  0
  9 10  2  0  0  0  0
 11 12  2  0  0  0  0
 11 21  1  0  0  0  0
 12 13  1  0  0  0  0
 12 14  1  0  0  0  0
 14 15  2  0  0  0  0
 14 19  1  0  0  0  0
 15 16  1  0  0  0  0
 16 17  2  0  0  0  0
 17 18  1  0  0  0  0
 18 19  2  0  0  0  0
 19 20  1  0  0  0  0
 20 21  1  0  0  0  0
 21 22  2  0  0  0  0
 23 24  2  0  0  0  0
 23 28  1  0  0  0  0
 24 25  1  0  0  0  0
 25 26  2  0  0  0  0
 26 27  1  0  0  0  0
 26 29  1  0  0  0  0
 27 28  2  0  0  0  0
 29 30  2  0  0  0  0
 29 35  1  0  0  0  0
 30 31  1  0  0  0  0
 31 32  2  0  0  0  0
 32 33  1  0  0  0  0
 32 34  1  0  0  0  0
 34 35  2  0  0  0  0
M  END
$$$$
Copper ethylenediamine
 OpenBabel03171423152D

  5  3  0  0  0  0  0  0  0  0999 V2000
    0.0000    0.0000    0.0000 Cu  0  0  0  0  0 15  0  0  0  0  0  0
    4.3018   -0.3572    0.0000 N   0  0  0  0  0  0  0  0  0  0  0  0
    3.4768   -0.3572    0.0000 C   0  0  0  0  0  0  0  0  0  0  0  0
    3.0643    0.3572    0.0000 C   0  0  0  0  0  0  0  0  0  0  0  0
    2.2393    0.3572    0.0000 N   0  0  0  0  0  0  0  0  0  0  0  0
  2  3  1  0  0  0  0
  3  4  1  0  0  0  0
  4  5  1  0  0  0  0
M  END
$$$$
glycerol
 OpenBabel03171423152D

  6  5  0  0  0  0  0  0  0  0999 V2000
    2.4750   -1.4289    0.0000 O   0  0  0  0  0  0  0  0  0  0  0  0
    2.0625   -0.7145    0.0000 C   0  0  0  0  0  0  0  0  0  0  0  0
    1.2375   -0.7145    0.0000 C   0  0  0  0  0  0  0  0  0  0  0  0
    0.8250   -1.4289    0.0000 O   0  0  0  0  0  0  0  0  0  0  0  0
    0.8250    0.0000    0.0000 C   0  0  0  0  0  0  0  0  0  0  0  0
    0.0000    0.0000    0.0000 O   0  0  0  0  0  0  0  0  0  0  0  0
  1  2  1  0  0  0  0
  2  3  1  0  0  0  0
  3  4  1  0  0  0  0
  3  5  1  0  0  0  0
  5  6  1  0  0  0  0
M  END
$$$$
octane
 OpenBabel03171423152D

  8  7  0  0  0  0  0  0  0  0999 V2000
    1.0461    1.4289    0.0000 C   0  0  0  0  0  0  0  0  0  0  0  0
    1.7605    1.8414    0.0000 C   0  0  0  0  0  0  0  0  0  0  0  0
    2.4750    1.4289    0.0000 C   0  0  0  0  0  0  0  0  0  0  0  0
    3.1895    1.8414    0.0000 C   0  0  0  0  0  0  0  0  0  0  0  0
    3.9039    1.4289    0.0000 C   0  0  0  0  0  0  0  0  0  0  0  0
    4.6184    1.8414    0.0000 C   0  0  0  0  0  0  0  0  0  0  0  0
    5.3329    1.4289    0.0000 C   0  0  0  0  0  0  0  0  0  0  0  0
    6.0474    1.8414    0.0000 C   0  0  0  0  0  0  0  0  0  0  0  0
  1  2  1  0  0  0  0
  2  3  1  0  0  0  0
  3  4  1  0  0  0  0
  4  5  1  0  0  0  0
  5  6  1  0  0  0  0
  6  7  1  0  0  0  0
  7  8  1  0  0  0  0
M  END
$$$$
Diethanolamin
 OpenBabel03171423152D

  7  6  0  0  0  0  0  0  0  0999 V2000
    1.2375    2.1434    0.0000 C   0  0  0  0  0  0  0  0  0  0  0  0
    0.8250    1.4289    0.0000 C   0  0  3  0  0  0  0  0  0  0  0  0
   -0.0000    1.4289    0.0000 O   0  0  0  0  0  0  0  0  0  0  0  0
    1.2375    0.7145    0.0000 N   0  0  0  0  0  0  0  0  0  0  0  0
    0.8250    0.0000    0.0000 C   0  0  3  0  0  0  0  0  0  0  0  0
    1.2375   -0.7145    0.0000 C   0  0  0  0  0  0  0  0  0  0  0  0
    0.0000    0.0000    0.0000 O   0  0  0  0  0  0  0  0  0  0  0  0
  1  2  1  0  0  0  0
  2  3  1  0  0  0  0
  2  4  1  0  0  0  0
  4  5  1  0  0  0  0
  5  6  1  0  0  0  0
  5  7  1  0  0  0  0
M  END
$$$$
BAP
 OpenBabel03171423152D

 17 19  0  0  0  0  0  0  0  0999 V2000
    2.5645    2.4750    0.0000 C   0  0  0  0  0  0  0  0  0  0  0  0
    3.2789    2.0625    0.0000 N   0  0  0  0  0  0  0  0  0  0  0  0
    3.2789    1.2375    0.0000 C   0  0  0  0  0  0  0  0  0  0  0  0
    3.9934    0.8250    0.0000 N   0  0  0  0  0  0  0  0  0  0  0  0
    3.9934    0.0000    0.0000 C   0  0  0  0  0  0  0  0  0  0  0  0
    3.2789   -0.4125    0.0000 N   0  0  0  0  0  0  0  0  0  0  0  0
    2.5645    0.0000    0.0000 C   0  0  0  0  0  0  0  0  0  0  0  0
    2.5645    0.8250    0.0000 C   0  0  0  0  0  0  0  0  0  0  0  0
    1.7798    1.0799    0.0000 N   0  0  0  0  0  0  0  0  0  0  0  0
    1.2949    0.4125    0.0000 C   0  0  0  0  0  0  0  0  0  0  0  0
    1.7798   -0.2549    0.0000 N   0  0  0  0  0  0  0  0  0  0  0  0
    2.5645    3.3000    0.0000 C   0  0  0  0  0  0  0  0  0  0  0  0
    1.8500    3.7125    0.0000 C   0  0  0  0  0  0  0  0  0  0  0  0
    1.8500    4.5375    0.0000 C   0  0  0  0  0  0  0  0  0  0  0  0
    2.5645    4.9500    0.0000 C   0  0  0  0  0  0  0  0  0  0  0  0
    3.2789    4.5375    0.0000 C   0  0  0  0  0  0  0  0  0  0  0  0
    3.2789    3.7125    0.0000 C   0  0  0  0  0  0  0  0  0  0  0  0
  1  2  1  0  0  0  0
  1 12  1  0  0  0  0
  2  3  1  0  0  0  0
  3  4  2  0  0  0  0
  3  8  1  0  0  0  0
  4  5  1  0  0  0  0
  5  6  2  0  0  0  0
  6  7  1  0  0  0  0
  7  8  2  0  0  0  0
  7 11  1  0  0  0  0
  8  9  1  0  0  0  0
  9 10  2  0  0  0  0
 10 11  1  0  0  0  0
 12 13  2  0  0  0  0
 12 17  1  0  0  0  0
 13 14  1  0  0  0  0
 14 15  2  0  0  0  0
 15 16  1  0  0  0  0
 16 17  2  0  0  0  0
M  END
$$$$
bromoxynil
 OpenBabel03171423152D

 11 11  0  0  0  0  0  0  0  0999 V2000
    0.7145    2.0625    0.0000 O   0  0  0  0  0  0  0  0  0  0  0  0
    0.7145    1.2375    0.0000 C   0  0  0  0  0  0  0  0  0  0  0  0
    1.4289    0.8250    0.0000 C   0  0  0  0  0  0  0  0  0  0  0  0
    2.1434    1.2375    0.0000 Br  0  0  0  0  0  0  0  0  0  0  0  0
    1.4289   -0.0000    0.0000 C   0  0  0  0  0  0  0  0  0  0  0  0
    0.7145   -0.4125    0.0000 C   0  0  0  0  0  0  0  0  0  0  0  0
    0.0000    0.0000    0.0000 C   0  0  0  0  0  0  0  0  0  0  0  0
    0.0000    0.8250    0.0000 C   0  0  0  0  0  0  0  0  0  0  0  0
   -0.7145    1.2375    0.0000 Br  0  0  0  0  0  0  0  0  0  0  0  0
    0.7145   -1.2375    0.0000 C   0  0  0  0  0  0  0  0  0  0  0  0
    0.7145   -2.0625    0.0000 N   0  0  0  0  0  0  0  0  0  0  0  0
  1  2  1  0  0  0  0
  2  3  2  0  0  0  0
  2  8  1  0  0  0  0
  3  4  1  0  0  0  0
  3  5  1  0  0  0  0
  5  6  2  0  0  0  0
  6  7  1  0  0  0  0
  6 10  1  0  0  0  0
  7  8  2  0  0  0  0
  8  9  1  0  0  0  0
 10 11  3  0  0  0  0
M  END
$$$$
trifluralin
 OpenBabel03171423152D

 23 23  0  0  0  0  0  0  0  0999 V2000
    0.7145   -2.0625    0.0000 C   0  0  0  0  0  0  0  0  0  0  0  0
    1.4289   -2.4750    0.0000 C   0  0  0  0  0  0  0  0  0  0  0  0
    1.4289   -3.3000    0.0000 C   0  0  0  0  0  0  0  0  0  0  0  0
    2.1434   -3.7125    0.0000 N   0  0  0  0  0  0  0  0  0  0  0  0
    2.8579   -3.3000    0.0000 C   0  0  0  0  0  0  0  0  0  0  0  0
    2.8579   -2.4750    0.0000 C   0  0  0  0  0  0  0  0  0  0  0  0
    3.5724   -2.0625    0.0000 C   0  0  0  0  0  0  0  0  0  0  0  0
    2.1434   -4.5375    0.0000 C   0  0  0  0  0  0  0  0  0  0  0  0
    2.8579   -4.9500    0.0000 C   0  0  0  0  0  0  0  0  0  0  0  0
    2.8579   -5.7750    0.0000 C   0  0  0  0  0  0  0  0  0  0  0  0
    2.1434   -6.1875    0.0000 C   0  0  0  0  0  0  0  0  0  0  0  0
    1.4289   -5.7750    0.0000 C   0  0  0  0  0  0  0  0  0  0  0  0
    1.4289   -4.9500    0.0000 C   0  0  0  0  0  0  0  0  0  0  0  0
    0.7145   -4.5375    0.0000 N   0  3  0  0  0  0  0  0  0  0  0  0
    0.7145   -3.7125    0.0000 O   0  5  0  0  0  0  0  0  0  0  0  0
    0.0000   -4.9500    0.0000 O   0  0  0  0  0  0  0  0  0  0  0  0
    2.1434   -7.0125    0.0000 C   0  0  0  0  0  0  0  0  0  0  0  0
    2.1434   -7.8375    0.0000 F   0  0  0  0  0  0  0  0  0  0  0  0
    1.3184   -7.0125    0.0000 F   0  0  0  0  0  0  0  0  0  0  0  0
    2.9684   -7.0125    0.0000 F   0  0  0  0  0  0  0  0  0  0  0  0
    3.5724   -4.5375    0.0000 N   0  3  0  0  0  0  0  0  0  0  0  0
    4.2868   -4.9500    0.0000 O   0  5  0  0  0  0  0  0  0  0  0  0
    3.5724   -3.7125    0.0000 O   0  0  0  0  0  0  0  0  0  0  0  0
  1  2  1  0  0  0  0
  2  3  1  0  0  0  0
  3  4  1  0  0  0  0
  4  5  1  0  0  0  0
  4  8  1  0  0  0  0
  5  6  1  0  0  0  0
  6  7  1  0  0  0  0
  8  9  2  0  0  0  0
  8 13  1  0  0  0  0
  9 10  1  0  0  0  0
  9 21  1  0  0  0  0
 10 11  2  0  0  0  0
 11 12  1  0  0  0  0
 11 17  1  0  0  0  0
 12 13  2  0  0  0  0
 13 14  1  0  0  0  0
 14 15  1  0  0  0  0
 14 16  2  0  0  0  0
 17 18  1  0  0  0  0
 17 19  1  0  0  0  0
 17 20  1  0  0  0  0
 21 22  1  0  0  0  0
 21 23  2  0  0  0  0
M  CHG  4  14   1  15  -1  21   1  22  -1
M  END
$$$$
oxadiazon
 OpenBabel03171423152D

 22 23  0  0  0  0  0  0  0  0999 V2000
    0.8212    6.0027    0.0000 C   0  0  0  0  0  0  0  0  0  0  0  0
    0.1067    5.5902    0.0000 C   0  0  0  0  0  0  0  0  0  0  0  0
   -0.6078    6.0027    0.0000 C   0  0  0  0  0  0  0  0  0  0  0  0
    0.1067    4.7652    0.0000 O   0  0  0  0  0  0  0  0  0  0  0  0
   -0.6078    4.3527    0.0000 C   0  0  0  0  0  0  0  0  0  0  0  0
   -0.6078    3.5277    0.0000 C   0  0  0  0  0  0  0  0  0  0  0  0
   -1.3222    3.1152    0.0000 C   0  0  0  0  0  0  0  0  0  0  0  0
   -1.3222    2.2902    0.0000 N   0  0  0  0  0  0  0  0  0  0  0  0
   -0.6548    1.8053    0.0000 N   0  0  0  0  0  0  0  0  0  0  0  0
   -0.9097    1.0206    0.0000 C   0  0  0  0  0  0  0  0  0  0  0  0
   -1.7347    1.0206    0.0000 O   0  0  0  0  0  0  0  0  0  0  0  0
   -1.9897    1.8053    0.0000 C   0  0  0  0  0  0  0  0  0  0  0  0
   -2.7743    2.0602    0.0000 O   0  0  0  0  0  0  0  0  0  0  0  0
   -0.4248    0.3532    0.0000 C   0  0  0  0  0  0  0  0  0  0  0  0
    0.0601   -0.3142    0.0000 C   0  0  0  0  0  0  0  0  0  0  0  0
   -1.0923   -0.1317    0.0000 C   0  0  0  0  0  0  0  0  0  0  0  0
    0.2426    0.8381    0.0000 C   0  0  0  0  0  0  0  0  0  0  0  0
   -2.0367    3.5277    0.0000 C   0  0  0  0  0  0  0  0  0  0  0  0
   -2.7512    3.1152    0.0000 Cl  0  0  0  0  0  0  0  0  0  0  0  0
   -2.0367    4.3527    0.0000 C   0  0  0  0  0  0  0  0  0  0  0  0
   -1.3222    4.7652    0.0000 C   0  0  0  0  0  0  0  0  0  0  0  0
   -1.3222    5.5902    0.0000 Cl  0  0  0  0  0  0  0  0  0  0  0  0
  1  2  1  0  0  0  0
  2  3  1  0  0  0  0
  2  4  1  0  0  0  0
  4  5  1  0  0  0  0
  5  6  2  0  0  0  0
  5 21  1  0  0  0  0
  6  7  1  0  0  0  0
  7  8  1  0  0  0  0
  7 18  2  0  0  0  0
  8  9  1  0  0  0  0
  8 12  1  0  0  0  0
  9 10  2  0  0  0  0
 10 11  1  0  0  0  0
 10 14  1  0  0  0  0
 11 12  1  0  0  0  0
 12 13  2  0  0  0  0
 14 15  1  0  0  0  0
 14 16  1  0  0  0  0
 14 17  1  0  0  0  0
 18 19  1  0  0  0  0
 18 20  1  0  0  0  0
 20 21  2  0  0  0  0
 21 22  1  0  0  0  0
M  END
$$$$
4-Aminopyridinen
 OpenBabel03171423152D

  7  7  0  0  0  0  0  0  0  0999 V2000
    0.7145    2.0625    0.0000 N   0  0  0  0  0  0  0  0  0  0  0  0
    0.7145    1.2375    0.0000 C   0  0  0  0  0  0  0  0  0  0  0  0
    1.4289    0.8250    0.0000 C   0  0  0  0  0  0  0  0  0  0  0  0
    1.4289   -0.0000    0.0000 C   0  0  0  0  0  0  0  0  0  0  0  0
    0.7145   -0.4125    0.0000 N   0  0  0  0  0  0  0  0  0  0  0  0
    0.0000    0.0000    0.0000 C   0  0  0  0  0  0  0  0  0  0  0  0
    0.0000    0.8250    0.0000 C   0  0  0  0  0  0  0  0  0  0  0  0
  1  2  1  0  0  0  0
  2  3  2  0  0  0  0
  2  7  1  0  0  0  0
  3  4  1  0  0  0  0
  4  5  2  0  0  0  0
  5  6  1  0  0  0  0
  6  7  2  0  0  0  0
M  END
$$$$
Endosulfan
 OpenBabel03171423152D

 19 21  0  0  0  0  0  0  0  0999 V2000
   -0.4595   -2.6321    0.0000 Cl  0  0  0  0  0  0  0  0  0  0  0  0
    0.1351   -2.0602    0.0000 C   0  0  0  0  0  0  0  0  0  0  0  0
    0.5004   -1.3997    0.0000 C   0  0  0  0  0  0  0  0  0  0  0  0
   -0.1135   -0.8486    0.0000 Cl  0  0  0  0  0  0  0  0  0  0  0  0
    1.1407   -0.9495    0.0000 C   0  0  3  0  0  0  0  0  0  0  0  0
    1.3626   -0.1549    0.0000 Cl  0  0  0  0  0  0  0  0  0  0  0  0
    1.9362   -1.4148    0.0000 C   0  0  3  0  0  0  0  0  0  0  0  0
    2.7390   -1.2249    0.0000 C   0  0  0  0  0  0  0  0  0  0  0  0
    3.3881   -1.7341    0.0000 O   0  0  0  0  0  0  0  0  0  0  0  0
    3.3946   -2.5591    0.0000 S   0  0  3  0  0  0  0  0  0  0  0  0
    4.1407   -2.9111    0.0000 O   0  0  0  0  0  0  0  0  0  0  0  0
    2.7537   -3.0786    0.0000 O   0  0  0  0  0  0  0  0  0  0  0  0
    1.9480   -2.9014    0.0000 C   0  0  0  0  0  0  0  0  0  0  0  0
    1.5841   -2.1609    0.0000 C   0  0  3  0  0  0  0  0  0  0  0  0
    0.9106   -1.6699    0.0000 C   0  0  3  0  0  0  0  0  0  0  0  0
    0.8432   -2.4921    0.0000 Cl  0  0  0  0  0  0  0  0  0  0  0  0
    0.9807   -0.1341    0.0000 C   0  0  0  0  0  0  0  0  0  0  0  0
    0.4010    0.4529    0.0000 Cl  0  0  0  0  0  0  0  0  0  0  0  0
    1.4674    0.5320    0.0000 Cl  0  0  0  0  0  0  0  0  0  0  0  0
  1  2  1  0  0  0  0
  2  3  2  0  0  0  0
  2 15  1  0  0  0  0
  3  4  1  0  0  0  0
  3  5  1  0  0  0  0
  5  6  1  0  0  0  0
  5  7  1  0  0  0  0
  5 17  1  0  0  0  0
  7  8  1  0  0  0  0
  7 14  1  0  0  0  0
  8  9  1  0  0  0  0
  9 10  1  0  0  0  0
 10 11  2  0  0  0  0
 10 12  1  0  0  0  0
 12 13  1  0  0  0  0
 13 14  1  0  0  0  0
 14 15  1  0  0  0  0
 15 16  1  0  0  0  0
 15 17  1  0  0  0  0
 17 18  1  0  0  0  0
 17 19  1  0  0  0  0
M  END
$$$$
Heptanoate
 OpenBabel03171423152D

  9  8  0  0  0  0  0  0  0  0999 V2000
    1.0461    1.4289    0.0000 C   0  0  0  0  0  0  0  0  0  0  0  0
    1.7605    1.8414    0.0000 C   0  0  0  0  0  0  0  0  0  0  0  0
    2.4750    1.4289    0.0000 C   0  0  0  0  0  0  0  0  0  0  0  0
    3.1895    1.8414    0.0000 C   0  0  0  0  0  0  0  0  0  0  0  0
    3.9039    1.4289    0.0000 C   0  0  0  0  0  0  0  0  0  0  0  0
    4.6184    1.8414    0.0000 C   0  0  0  0  0  0  0  0  0  0  0  0
    5.3329    1.4289    0.0000 C   0  0  0  0  0  0  0  0  0  0  0  0
    6.0474    1.8414    0.0000 O   0  5  0  0  0  0  0  0  0  0  0  0
    5.3329    0.6039    0.0000 O   0  0  0  0  0  0  0  0  0  0  0  0
  1  2  1  0  0  0  0
  2  3  1  0  0  0  0
  3  4  1  0  0  0  0
  4  5  1  0  0  0  0
  5  6  1  0  0  0  0
  6  7  1  0  0  0  0
  7  8  1  0  0  0  0
  7  9  2  0  0  0  0
M  CHG  1   8  -1
M  END
$$$$
streptomycin
 OpenBabel03171423152D

 40 42  0  0  1  0  0  0  0  0999 V2000
    5.8426   -0.7643    0.0000 C   0  0  0  0  0  0  0  0  0  0  0  0
    5.0580   -1.0192    0.0000 N   0  0  0  0  0  0  0  0  0  0  0  0
    4.8865   -1.8262    0.0000 C   0  0  2  0  0  0  0  0  0  0  0  0
    4.1019   -2.0811    0.0000 C   0  0  2  0  0  0  0  0  0  0  0  0
    3.4888   -1.5291    0.0000 O   0  0  0  0  0  0  0  0  0  0  0  0
    2.7041   -1.7840    0.0000 C   0  0  1  0  0  0  0  0  0  0  0  0
    2.4492   -2.5687    0.0000 C   0  0  2  0  0  0  0  0  0  0  0  0
    2.9341   -3.2361    0.0000 O   0  0  0  0  0  0  0  0  0  0  0  0
    2.5986   -3.9898    0.0000 C   0  0  1  0  0  0  0  0  0  0  0  0
    3.0835   -4.6572    0.0000 C   0  0  2  0  0  0  0  0  0  0  0  0
    3.9040   -4.5710    0.0000 O   0  0  0  0  0  0  0  0  0  0  0  0
    2.7479   -5.4109    0.0000 C   0  0  1  0  0  0  0  0  0  0  0  0
    3.2329   -6.0783    0.0000 O   0  0  0  0  0  0  0  0  0  0  0  0
    1.9275   -5.4971    0.0000 C   0  0  2  0  0  0  0  0  0  0  0  0
    1.5919   -6.2508    0.0000 N   0  0  0  0  0  0  0  0  0  0  0  0
    0.7714   -6.3370    0.0000 C   0  0  0  0  0  0  0  0  0  0  0  0
    0.4359   -7.0907    0.0000 N   0  0  0  0  0  0  0  0  0  0  0  0
    0.2865   -5.6696    0.0000 N   0  0  0  0  0  0  0  0  0  0  0  0
    1.4425   -4.8297    0.0000 C   0  0  1  0  0  0  0  0  0  0  0  0
    0.6221   -4.9159    0.0000 O   0  0  0  0  0  0  0  0  0  0  0  0
    1.7781   -4.0760    0.0000 C   0  0  2  0  0  0  0  0  0  0  0  0
    1.2932   -3.4086    0.0000 N   0  0  0  0  0  0  0  0  0  0  0  0
    0.4727   -3.4948    0.0000 C   0  0  0  0  0  0  0  0  0  0  0  0
   -0.0122   -2.8274    0.0000 N   0  0  0  0  0  0  0  0  0  0  0  0
    0.1371   -4.2485    0.0000 N   0  0  0  0  0  0  0  0  0  0  0  0
    1.6242   -2.5687    0.0000 O   0  0  0  0  0  0  0  0  0  0  0  0
    1.3693   -1.7840    0.0000 C   0  0  1  0  0  0  0  0  0  0  0  0
    0.5846   -1.5291    0.0000 C   0  0  0  0  0  0  0  0  0  0  0  0
    2.0367   -1.2991    0.0000 C   0  0  1  0  0  0  0  0  0  0  0  0
    1.6317   -0.5804    0.0000 O   0  0  0  0  0  0  0  0  0  0  0  0
    2.4417   -0.5804    0.0000 C   0  0  0  0  0  0  0  0  0  0  0  0
    3.2667   -0.5717    0.0000 O   0  0  0  0  0  0  0  0  0  0  0  0
    3.9303   -2.8881    0.0000 O   0  0  0  0  0  0  0  0  0  0  0  0
    4.5434   -3.4401    0.0000 C   0  0  1  0  0  0  0  0  0  0  0  0
    4.3719   -4.2471    0.0000 C   0  0  0  0  0  0  0  0  0  0  0  0
    4.9850   -4.7991    0.0000 O   0  0  0  0  0  0  0  0  0  0  0  0
    5.3281   -3.1852    0.0000 C   0  0  2  0  0  0  0  0  0  0  0  0
    5.9411   -3.7372    0.0000 O   0  0  0  0  0  0  0  0  0  0  0  0
    5.4996   -2.3782    0.0000 C   0  0  1  0  0  0  0  0  0  0  0  0
    6.2842   -2.1233    0.0000 O   0  0  0  0  0  0  0  0  0  0  0  0
  1  2  1  0  0  0  0
  3  2  1  1  0  0  0
  3  4  1  0  0  0  0
  3 39  1  0  0  0  0
  4  5  1  1  0  0  0
  4 33  1  0  0  0  0
  6  5  1  1  0  0  0
  6  7  1  0  0  0  0
  6 29  1  0  0  0  0
  7  8  1  6  0  0  0
  7 26  1  0  0  0  0
  9  8  1  1  0  0  0
  9 10  1  0  0  0  0
  9 21  1  0  0  0  0
 10 11  1  6  0  0  0
 10 12  1  0  0  0  0
 12 13  1  1  0  0  0
 12 14  1  0  0  0  0
 14 15  1  6  0  0  0
 14 19  1  0  0  0  0
 15 16  2  0  0  0  0
 16 17  1  0  0  0  0
 16 18  1  0  0  0  0
 19 20  1  1  0  0  0
 19 21  1  0  0  0  0
 21 22  1  6  0  0  0
 22 23  2  0  0  0  0
 23 24  1  0  0  0  0
 23 25  1  0  0  0  0
 26 27  1  0  0  0  0
 27 28  1  1  0  0  0
 27 29  1  0  0  0  0
 29 30  1  1  0  0  0
 29 31  1  0  0  0  0
 31 32  2  0  0  0  0
 33 34  1  0  0  0  0
 34 35  1  6  0  0  0
 34 37  1  0  0  0  0
 35 36  1  0  0  0  0
 37 38  1  1  0  0  0
 37 39  1  0  0  0  0
 39 40  1  6  0  0  0
M  END
$$$$
spirodiclofen
 OpenBabel03171423152D

 27 29  0  0  0  0  0  0  0  0999 V2000
    1.6986   -1.3754    0.0000 C   0  0  0  0  0  0  0  0  0  0  0  0
    1.5271   -2.1823    0.0000 C   0  0  0  0  0  0  0  0  0  0  0  0
    0.7425   -2.4373    0.0000 C   0  0  0  0  0  0  0  0  0  0  0  0
   -0.0422   -2.6922    0.0000 C   0  0  0  0  0  0  0  0  0  0  0  0
    0.9974   -3.2219    0.0000 C   0  0  0  0  0  0  0  0  0  0  0  0
    0.4875   -1.6527    0.0000 C   0  0  0  0  0  0  0  0  0  0  0  0
   -0.3194   -1.4811    0.0000 O   0  0  0  0  0  0  0  0  0  0  0  0
    1.0396   -1.0396    0.0000 O   0  0  0  0  0  0  0  0  0  0  0  0
    0.7846   -0.2549    0.0000 C   0  0  0  0  0  0  0  0  0  0  0  0
    0.0000   -0.0000    0.0000 C   0  0  0  0  0  0  0  0  0  0  0  0
   -0.0000    0.8250    0.0000 C   0  0  0  0  0  0  0  0  0  0  0  0
   -0.6674    1.3099    0.0000 O   0  0  0  0  0  0  0  0  0  0  0  0
    0.7846    1.0799    0.0000 O   0  0  0  0  0  0  0  0  0  0  0  0
    1.2695    0.4125    0.0000 C   0  0  0  0  0  0  0  0  0  0  0  0
    1.6820    1.1270    0.0000 C   0  0  0  0  0  0  0  0  0  0  0  0
    2.5070    1.1270    0.0000 C   0  0  0  0  0  0  0  0  0  0  0  0
    2.9195    0.4125    0.0000 C   0  0  0  0  0  0  0  0  0  0  0  0
    2.5070   -0.3020    0.0000 C   0  0  0  0  0  0  0  0  0  0  0  0
    1.6820   -0.3020    0.0000 C   0  0  0  0  0  0  0  0  0  0  0  0
   -0.6674   -0.4849    0.0000 C   0  0  0  0  0  0  0  0  0  0  0  0
   -0.5812   -1.3054    0.0000 C   0  0  0  0  0  0  0  0  0  0  0  0
   -0.4097   -2.1124    0.0000 Cl  0  0  0  0  0  0  0  0  0  0  0  0
   -1.2486   -1.7903    0.0000 C   0  0  0  0  0  0  0  0  0  0  0  0
   -2.0023   -1.4548    0.0000 C   0  0  0  0  0  0  0  0  0  0  0  0
   -2.6698   -1.9397    0.0000 Cl  0  0  0  0  0  0  0  0  0  0  0  0
   -2.0886   -0.6343    0.0000 C   0  0  0  0  0  0  0  0  0  0  0  0
   -1.4211   -0.1494    0.0000 C   0  0  0  0  0  0  0  0  0  0  0  0
  1  2  1  0  0  0  0
  2  3  1  0  0  0  0
  3  4  1  0  0  0  0
  3  5  1  0  0  0  0
  3  6  1  0  0  0  0
  6  7  2  0  0  0  0
  6  8  1  0  0  0  0
  8  9  1  0  0  0  0
  9 10  2  0  0  0  0
  9 14  1  0  0  0  0
 10 11  1  0  0  0  0
 10 20  1  0  0  0  0
 11 12  2  0  0  0  0
 11 13  1  0  0  0  0
 13 14  1  0  0  0  0
 14 15  1  0  0  0  0
 14 19  1  0  0  0  0
 15 16  1  0  0  0  0
 16 17  1  0  0  0  0
 17 18  1  0  0  0  0
 18 19  1  0  0  0  0
 20 21  2  0  0  0  0
 20 27  1  0  0  0  0
 21 22  1  0  0  0  0
 21 23  1  0  0  0  0
 23 24  2  0  0  0  0
 24 25  1  0  0  0  0
 24 26  1  0  0  0  0
 26 27  2  0  0  0  0
M  END
$$$$
tetramethrin
 OpenBabel03171423152D

 24 26  0  0  0  0  0  0  0  0999 V2000
   -5.8804   -3.2539    0.0000 C   0  0  0  0  0  0  0  0  0  0  0  0
   -5.0554   -3.2539    0.0000 C   0  0  0  0  0  0  0  0  0  0  0  0
   -4.6429   -3.9683    0.0000 C   0  0  0  0  0  0  0  0  0  0  0  0
   -4.6429   -2.5394    0.0000 C   0  0  0  0  0  0  0  0  0  0  0  0
   -3.8179   -2.5394    0.0000 C   0  0  3  0  0  0  0  0  0  0  0  0
   -3.1034   -2.1269    0.0000 C   0  0  3  0  0  0  0  0  0  0  0  0
   -2.6909   -1.4124    0.0000 C   0  0  0  0  0  0  0  0  0  0  0  0
   -3.1034   -0.6979    0.0000 O   0  0  0  0  0  0  0  0  0  0  0  0
   -1.8659   -1.4124    0.0000 O   0  0  0  0  0  0  0  0  0  0  0  0
   -1.4534   -0.6979    0.0000 C   0  0  0  0  0  0  0  0  0  0  0  0
   -0.6284   -0.6979    0.0000 N   0  0  0  0  0  0  0  0  0  0  0  0
   -0.1435   -1.3654    0.0000 C   0  0  0  0  0  0  0  0  0  0  0  0
   -0.3984   -2.1500    0.0000 O   0  0  0  0  0  0  0  0  0  0  0  0
    0.6411   -1.1104    0.0000 C   0  0  0  0  0  0  0  0  0  0  0  0
    0.6411   -0.2854    0.0000 C   0  0  0  0  0  0  0  0  0  0  0  0
    1.3556    0.1271    0.0000 C   0  0  0  0  0  0  0  0  0  0  0  0
    2.0701   -0.2854    0.0000 C   0  0  0  0  0  0  0  0  0  0  0  0
    2.0701   -1.1104    0.0000 C   0  0  0  0  0  0  0  0  0  0  0  0
    1.3556   -1.5229    0.0000 C   0  0  0  0  0  0  0  0  0  0  0  0
   -0.1435   -0.0305    0.0000 C   0  0  0  0  0  0  0  0  0  0  0  0
   -0.3984    0.7541    0.0000 O   0  0  0  0  0  0  0  0  0  0  0  0
   -3.1034   -2.9519    0.0000 C   0  0  0  0  0  0  0  0  0  0  0  0
   -2.3557   -3.3005    0.0000 C   0  0  0  0  0  0  0  0  0  0  0  0
   -3.1753   -3.7737    0.0000 C   0  0  0  0  0  0  0  0  0  0  0  0
  1  2  1  0  0  0  0
  2  3  1  0  0  0  0
  2  4  2  0  0  0  0
  4  5  1  0  0  0  0
  5  6  1  0  0  0  0
  5 22  1  0  0  0  0
  6  7  1  0  0  0  0
  6 22  1  0  0  0  0
  7  8  2  0  0  0  0
  7  9  1  0  0  0  0
  9 10  1  0  0  0  0
 10 11  1  0  0  0  0
 11 12  1  0  0  0  0
 11 20  1  0  0  0  0
 12 13  2  0  0  0  0
 12 14  1  0  0  0  0
 14 15  2  0  0  0  0
 14 19  1  0  0  0  0
 15 16  1  0  0  0  0
 15 20  1  0  0  0  0
 16 17  1  0  0  0  0
 17 18  1  0  0  0  0
 18 19  1  0  0  0  0
 20 21  2  0  0  0  0
 22 23  1  0  0  0  0
 22 24  1  0  0  0  0
M  END
$$$$
Dimethyl tetrachloroterephthalate
 OpenBabel03171423152D

 18 18  0  0  0  0  0  0  0  0999 V2000
    0.0000    3.3000    0.0000 C   0  0  0  0  0  0  0  0  0  0  0  0
    0.0000    2.4750    0.0000 O   0  0  0  0  0  0  0  0  0  0  0  0
    0.7145    2.0625    0.0000 C   0  0  0  0  0  0  0  0  0  0  0  0
    1.4289    2.4750    0.0000 O   0  0  0  0  0  0  0  0  0  0  0  0
    0.7145    1.2375    0.0000 C   0  0  0  0  0  0  0  0  0  0  0  0
    1.4289    0.8250    0.0000 C   0  0  0  0  0  0  0  0  0  0  0  0
    2.1434    1.2375    0.0000 Cl  0  0  0  0  0  0  0  0  0  0  0  0
    1.4289   -0.0000    0.0000 C   0  0  0  0  0  0  0  0  0  0  0  0
    2.1434   -0.4125    0.0000 Cl  0  0  0  0  0  0  0  0  0  0  0  0
    0.7145   -0.4125    0.0000 C   0  0  0  0  0  0  0  0  0  0  0  0
    0.7145   -1.2375    0.0000 C   0  0  0  0  0  0  0  0  0  0  0  0
    1.4289   -1.6500    0.0000 O   0  0  0  0  0  0  0  0  0  0  0  0
   -0.0000   -1.6500    0.0000 O   0  0  0  0  0  0  0  0  0  0  0  0
   -0.0000   -2.4750    0.0000 C   0  0  0  0  0  0  0  0  0  0  0  0
    0.0000    0.0000    0.0000 C   0  0  0  0  0  0  0  0  0  0  0  0
   -0.7145   -0.4125    0.0000 Cl  0  0  0  0  0  0  0  0  0  0  0  0
    0.0000    0.8250    0.0000 C   0  0  0  0  0  0  0  0  0  0  0  0
   -0.7145    1.2375    0.0000 Cl  0  0  0  0  0  0  0  0  0  0  0  0
  1  2  1  0  0  0  0
  2  3  1  0  0  0  0
  3  4  2  0  0  0  0
  3  5  1  0  0  0  0
  5  6  2  0  0  0  0
  5 17  1  0  0  0  0
  6  7  1  0  0  0  0
  6  8  1  0  0  0  0
  8  9  1  0  0  0  0
  8 10  2  0  0  0  0
 10 11  1  0  0  0  0
 10 15  1  0  0  0  0
 11 12  2  0  0  0  0
 11 13  1  0  0  0  0
 13 14  1  0  0  0  0
 15 16  1  0  0  0  0
 15 17  2  0  0  0  0
 17 18  1  0  0  0  0
M  END
$$$$
tetraconazole
 OpenBabel03171423152D

 23 24  0  0  0  0  0  0  0  0999 V2000
   -0.6078    4.3527    0.0000 F   0  0  0  0  0  0  0  0  0  0  0  0
   -1.3222    3.9402    0.0000 C   0  0  0  0  0  0  0  0  0  0  0  0
   -2.0367    4.3527    0.0000 F   0  0  0  0  0  0  0  0  0  0  0  0
   -1.3222    3.1152    0.0000 C   0  0  0  0  0  0  0  0  0  0  0  0
   -2.1472    3.1152    0.0000 F   0  0  0  0  0  0  0  0  0  0  0  0
   -0.4972    3.1152    0.0000 F   0  0  0  0  0  0  0  0  0  0  0  0
   -1.3222    2.2902    0.0000 O   0  0  0  0  0  0  0  0  0  0  0  0
   -2.0367    1.8777    0.0000 C   0  0  0  0  0  0  0  0  0  0  0  0
   -2.0367    1.0527    0.0000 C   0  0  3  0  0  0  0  0  0  0  0  0
   -1.3222    0.6402    0.0000 C   0  0  0  0  0  0  0  0  0  0  0  0
   -1.3222   -0.1848    0.0000 N   0  0  0  0  0  0  0  0  0  0  0  0
   -0.6548   -0.6697    0.0000 C   0  0  0  0  0  0  0  0  0  0  0  0
   -0.9097   -1.4544    0.0000 N   0  0  0  0  0  0  0  0  0  0  0  0
   -1.7347   -1.4544    0.0000 C   0  0  0  0  0  0  0  0  0  0  0  0
   -1.9897   -0.6697    0.0000 N   0  0  0  0  0  0  0  0  0  0  0  0
   -2.7512    0.6402    0.0000 C   0  0  0  0  0  0  0  0  0  0  0  0
   -2.7512   -0.1848    0.0000 C   0  0  0  0  0  0  0  0  0  0  0  0
   -3.4656   -0.5973    0.0000 C   0  0  0  0  0  0  0  0  0  0  0  0
   -4.1801   -0.1848    0.0000 C   0  0  0  0  0  0  0  0  0  0  0  0
   -4.8946   -0.5973    0.0000 Cl  0  0  0  0  0  0  0  0  0  0  0  0
   -4.1801    0.6402    0.0000 C   0  0  0  0  0  0  0  0  0  0  0  0
   -3.4656    1.0527    0.0000 C   0  0  0  0  0  0  0  0  0  0  0  0
   -3.4656    1.8777    0.0000 Cl  0  0  0  0  0  0  0  0  0  0  0  0
  1  2  1  0  0  0  0
  2  3  1  0  0  0  0
  2  4  1  0  0  0  0
  4  5  1  0  0  0  0
  4  6  1  0  0  0  0
  4  7  1  0  0  0  0
  7  8  1  0  0  0  0
  8  9  1  0  0  0  0
  9 10  1  0  0  0  0
  9 16  1  0  0  0  0
 10 11  1  0  0  0  0
 11 12  1  0  0  0  0
 11 15  1  0  0  0  0
 12 13  2  0  0  0  0
 13 14  1  0  0  0  0
 14 15  2  0  0  0  0
 16 17  2  0  0  0  0
 16 22  1  0  0  0  0
 17 18  1  0  0  0  0
 18 19  2  0  0  0  0
 19 20  1  0  0  0  0
 19 21  1  0  0  0  0
 21 22  2  0  0  0  0
 22 23  1  0  0  0  0
M  END
$$$$
2-methyl-2,4-pentanediol
 OpenBabel03171423152D

  8  7  0  0  0  0  0  0  0  0999 V2000
    0.1105   -2.0625    0.0000 C   0  0  0  0  0  0  0  0  0  0  0  0
    0.1105   -1.2375    0.0000 C   0  0  3  0  0  0  0  0  0  0  0  0
   -0.6039   -0.8250    0.0000 O   0  0  0  0  0  0  0  0  0  0  0  0
    0.8250   -0.8250    0.0000 C   0  0  0  0  0  0  0  0  0  0  0  0
    0.8250    0.0000    0.0000 C   0  0  0  0  0  0  0  0  0  0  0  0
    0.8250    0.8250    0.0000 C   0  0  0  0  0  0  0  0  0  0  0  0
    1.6500   -0.0000    0.0000 C   0  0  0  0  0  0  0  0  0  0  0  0
    0.0000    0.0000    0.0000 O   0  0  0  0  0  0  0  0  0  0  0  0
  1  2  1  0  0  0  0
  2  3  1  0  0  0  0
  2  4  1  0  0  0  0
  4  5  1  0  0  0  0
  5  6  1  0  0  0  0
  5  7  1  0  0  0  0
  5  8  1  0  0  0  0
M  END
$$$$
Sulfuryl Fluoride
 OpenBabel03171423152D

  5  4  0  0  0  0  0  0  0  0999 V2000
    0.8250   -0.8250    0.0000 F   0  0  0  0  0  0  0  0  0  0  0  0
    0.8250    0.0000    0.0000 S   0  0  0  0  0  0  0  0  0  0  0  0
    0.8250    0.8250    0.0000 F   0  0  0  0  0  0  0  0  0  0  0  0
    1.6500   -0.0000    0.0000 O   0  0  0  0  0  0  0  0  0  0  0  0
    0.0000    0.0000    0.0000 O   0  0  0  0  0  0  0  0  0  0  0  0
  1  2  1  0  0  0  0
  2  3  1  0  0  0  0
  2  4  2  0  0  0  0
  2  5  2  0  0  0  0
M  END
$$$$
oxazolidine
 OpenBabel03171423152D

  5  5  0  0  0  0  0  0  0  0999 V2000
    0.5678    1.1143    0.0000 C   0  0  0  0  0  0  0  0  0  0  0  0
    1.2352    0.6294    0.0000 C   0  0  0  0  0  0  0  0  0  0  0  0
    0.9803   -0.1553    0.0000 O   0  0  0  0  0  0  0  0  0  0  0  0
    0.1553   -0.1553    0.0000 C   0  0  0  0  0  0  0  0  0  0  0  0
   -0.0997    0.6294    0.0000 N   0  0  0  0  0  0  0  0  0  0  0  0
  1  2  1  0  0  0  0
  1  5  1  0  0  0  0
  2  3  1  0  0  0  0
  3  4  1  0  0  0  0
  4  5  1  0  0  0  0
M  END
$$$$
1-Naphthaleneacetamide
 OpenBabel03171423152D

 14 15  0  0  0  0  0  0  0  0999 V2000
   -0.7145    2.0625    0.0000 N   0  0  0  0  0  0  0  0  0  0  0  0
   -0.7145    1.2375    0.0000 C   0  0  0  0  0  0  0  0  0  0  0  0
   -1.4289    0.8250    0.0000 O   0  0  0  0  0  0  0  0  0  0  0  0
    0.0000    0.8250    0.0000 C   0  0  0  0  0  0  0  0  0  0  0  0
    0.0000   -0.0000    0.0000 C   0  0  0  0  0  0  0  0  0  0  0  0
   -0.7145   -0.4125    0.0000 C   0  0  0  0  0  0  0  0  0  0  0  0
   -0.7145   -1.2375    0.0000 C   0  0  0  0  0  0  0  0  0  0  0  0
    0.0000   -1.6500    0.0000 C   0  0  0  0  0  0  0  0  0  0  0  0
    0.7145   -1.2375    0.0000 C   0  0  0  0  0  0  0  0  0  0  0  0
    0.7145   -0.4125    0.0000 C   0  0  0  0  0  0  0  0  0  0  0  0
    1.4289   -0.0000    0.0000 C   0  0  0  0  0  0  0  0  0  0  0  0
    2.1434   -0.4125    0.0000 C   0  0  0  0  0  0  0  0  0  0  0  0
    2.1434   -1.2375    0.0000 C   0  0  0  0  0  0  0  0  0  0  0  0
    1.4289   -1.6500    0.0000 C   0  0  0  0  0  0  0  0  0  0  0  0
  1  2  1  0  0  0  0
  2  3  2  0  0  0  0
  2  4  1  0  0  0  0
  4  5  1  0  0  0  0
  5  6  2  0  0  0  0
  5 10  1  0  0  0  0
  6  7  1  0  0  0  0
  7  8  2  0  0  0  0
  8  9  1  0  0  0  0
  9 10  2  0  0  0  0
  9 14  1  0  0  0  0
 10 11  1  0  0  0  0
 11 12  2  0  0  0  0
 12 13  1  0  0  0  0
 13 14  2  0  0  0  0
M  END
$$$$
mepiquat chloride
 OpenBabel03171423152D

  9  8  0  0  0  0  0  0  0  0999 V2000
    0.0000    0.0000    0.0000 Cl  0  5  0  0  0  0  0  0  0  0  0  0
    3.4841    1.0927    0.0000 C   0  0  0  0  0  0  0  0  0  0  0  0
    2.9538    0.4608    0.0000 N   0  3  0  0  0  0  0  0  0  0  0  0
    2.4235    1.0927    0.0000 C   0  0  0  0  0  0  0  0  0  0  0  0
    3.6682    0.0483    0.0000 C   0  0  0  0  0  0  0  0  0  0  0  0
    3.6682   -0.7767    0.0000 C   0  0  0  0  0  0  0  0  0  0  0  0
    2.9538   -1.1892    0.0000 C   0  0  0  0  0  0  0  0  0  0  0  0
    2.2393   -0.7767    0.0000 C   0  0  0  0  0  0  0  0  0  0  0  0
    2.2393    0.0483    0.0000 C   0  0  0  0  0  0  0  0  0  0  0  0
  2  3  1  0  0  0  0
  3  4  1  0  0  0  0
  3  5  1  0  0  0  0
  3  9  1  0  0  0  0
  5  6  1  0  0  0  0
  6  7  1  0  0  0  0
  7  8  1  0  0  0  0
  8  9  1  0  0  0  0
M  CHG  2   1  -1   3   1
M  END
$$$$
Chlorpyrifos
 OpenBabel03171423152D

 18 18  0  0  0  0  0  0  0  0999 V2000
   -1.4289    4.1250    0.0000 C   0  0  0  0  0  0  0  0  0  0  0  0
   -0.7145    3.7125    0.0000 C   0  0  0  0  0  0  0  0  0  0  0  0
   -0.7145    2.8875    0.0000 O   0  0  0  0  0  0  0  0  0  0  0  0
    0.0000    2.4750    0.0000 P   0  0  0  0  0  0  0  0  0  0  0  0
   -0.4125    1.7605    0.0000 S   0  0  0  0  0  0  0  0  0  0  0  0
    0.4125    3.1895    0.0000 O   0  0  0  0  0  0  0  0  0  0  0  0
    1.2375    3.1895    0.0000 C   0  0  0  0  0  0  0  0  0  0  0  0
    1.6500    2.4750    0.0000 C   0  0  0  0  0  0  0  0  0  0  0  0
    0.7145    2.0625    0.0000 O   0  0  0  0  0  0  0  0  0  0  0  0
    0.7145    1.2375    0.0000 C   0  0  0  0  0  0  0  0  0  0  0  0
    1.4289    0.8250    0.0000 C   0  0  0  0  0  0  0  0  0  0  0  0
    2.1434    1.2375    0.0000 Cl  0  0  0  0  0  0  0  0  0  0  0  0
    1.4289   -0.0000    0.0000 C   0  0  0  0  0  0  0  0  0  0  0  0
    0.7145   -0.4125    0.0000 C   0  0  0  0  0  0  0  0  0  0  0  0
    0.7145   -1.2375    0.0000 Cl  0  0  0  0  0  0  0  0  0  0  0  0
    0.0000    0.0000    0.0000 C   0  0  0  0  0  0  0  0  0  0  0  0
   -0.7145   -0.4125    0.0000 Cl  0  0  0  0  0  0  0  0  0  0  0  0
    0.0000    0.8250    0.0000 N   0  0  0  0  0  0  0  0  0  0  0  0
  1  2  1  0  0  0  0
  2  3  1  0  0  0  0
  3  4  1  0  0  0  0
  4  5  2  0  0  0  0
  4  6  1  0  0  0  0
  4  9  1  0  0  0  0
  6  7  1  0  0  0  0
  7  8  1  0  0  0  0
  9 10  1  0  0  0  0
 10 11  2  0  0  0  0
 10 18  1  0  0  0  0
 11 12  1  0  0  0  0
 11 13  1  0  0  0  0
 13 14  2  0  0  0  0
 14 15  1  0  0  0  0
 14 16  1  0  0  0  0
 16 17  1  0  0  0  0
 16 18  2  0  0  0  0
M  END
$$$$
Dimethoate
 OpenBabel03171423152D

 12 11  0  0  0  0  0  0  0  0999 V2000
    4.8099    0.3020    0.0000 C   0  0  0  0  0  0  0  0  0  0  0  0
    4.0954    0.7145    0.0000 N   0  0  0  0  0  0  0  0  0  0  0  0
    3.3809    0.3020    0.0000 C   0  0  0  0  0  0  0  0  0  0  0  0
    3.3809   -0.5230    0.0000 O   0  0  0  0  0  0  0  0  0  0  0  0
    2.6664    0.7145    0.0000 C   0  0  0  0  0  0  0  0  0  0  0  0
    1.9520    0.3020    0.0000 S   0  0  0  0  0  0  0  0  0  0  0  0
    1.2375    0.7145    0.0000 P   0  0  0  0  0  0  0  0  0  0  0  0
    1.6500    1.4289    0.0000 S   0  0  0  0  0  0  0  0  0  0  0  0
    0.5230    1.1270    0.0000 O   0  0  0  0  0  0  0  0  0  0  0  0
   -0.1914    0.7145    0.0000 C   0  0  0  0  0  0  0  0  0  0  0  0
    0.8250    0.0000    0.0000 O   0  0  0  0  0  0  0  0  0  0  0  0
    0.0000    0.0000    0.0000 C   0  0  0  0  0  0  0  0  0  0  0  0
  1  2  1  0  0  0  0
  2  3  1  0  0  0  0
  3  4  2  0  0  0  0
  3  5  1  0  0  0  0
  5  6  1  0  0  0  0
  6  7  1  0  0  0  0
  7  8  2  0  0  0  0
  7  9  1  0  0  0  0
  7 11  1  0  0  0  0
  9 10  1  0  0  0  0
 11 12  1  0  0  0  0
M  END
$$$$
copper(II) sulfate
 OpenBabel03171423152D

  6  4  0  0  0  0  0  0  0  0999 V2000
    0.0000    0.0000    0.0000 Cu  0  2  0  0  0 15  0  0  0  0  0  0
    2.8286   -0.8250    0.0000 O   0  5  0  0  0  0  0  0  0  0  0  0
    2.8286    0.0000    0.0000 S   0  0  0  0  0  0  0  0  0  0  0  0
    2.8286    0.8250    0.0000 O   0  5  0  0  0  0  0  0  0  0  0  0
    3.6536   -0.0000    0.0000 O   0  0  0  0  0  0  0  0  0  0  0  0
    2.0036    0.0000    0.0000 O   0  0  0  0  0  0  0  0  0  0  0  0
  2  3  1  0  0  0  0
  3  4  1  0  0  0  0
  3  5  2  0  0  0  0
  3  6  2  0  0  0  0
M  CHG  3   1   2   2  -1   4  -1
M  END
$$$$
imiprothrin
 OpenBabel03171423152D

 23 24  0  0  0  0  0  0  0  0999 V2000
    2.4276   -4.0550    0.0000 C   0  0  0  0  0  0  0  0  0  0  0  0
    1.7132   -3.6425    0.0000 C   0  0  0  0  0  0  0  0  0  0  0  0
    1.7132   -2.8175    0.0000 C   0  0  0  0  0  0  0  0  0  0  0  0
    0.9987   -4.0550    0.0000 C   0  0  0  0  0  0  0  0  0  0  0  0
    0.2842   -3.6425    0.0000 C   0  0  3  0  0  0  0  0  0  0  0  0
   -0.5408   -3.6425    0.0000 C   0  0  3  0  0  0  0  0  0  0  0  0
   -1.2553   -4.0550    0.0000 C   0  0  0  0  0  0  0  0  0  0  0  0
   -1.9697   -3.6425    0.0000 O   0  0  0  0  0  0  0  0  0  0  0  0
   -1.2553   -4.8800    0.0000 O   0  0  0  0  0  0  0  0  0  0  0  0
   -1.9697   -5.2925    0.0000 C   0  0  0  0  0  0  0  0  0  0  0  0
   -1.9697   -6.1175    0.0000 N   0  0  0  0  0  0  0  0  0  0  0  0
   -1.3023   -6.6024    0.0000 C   0  0  0  0  0  0  0  0  0  0  0  0
   -0.5177   -6.3475    0.0000 O   0  0  0  0  0  0  0  0  0  0  0  0
   -1.5572   -7.3870    0.0000 C   0  0  0  0  0  0  0  0  0  0  0  0
   -2.3822   -7.3870    0.0000 N   0  0  0  0  0  0  0  0  0  0  0  0
   -2.8671   -8.0545    0.0000 C   0  0  0  0  0  0  0  0  0  0  0  0
   -2.5316   -8.8082    0.0000 C   0  0  0  0  0  0  0  0  0  0  0  0
   -2.1960   -9.5618    0.0000 C   0  0  0  0  0  0  0  0  0  0  0  0
   -2.6372   -6.6024    0.0000 C   0  0  0  0  0  0  0  0  0  0  0  0
   -3.4218   -6.3475    0.0000 O   0  0  0  0  0  0  0  0  0  0  0  0
   -0.1283   -2.9280    0.0000 C   0  0  0  0  0  0  0  0  0  0  0  0
   -0.6015   -2.2522    0.0000 C   0  0  0  0  0  0  0  0  0  0  0  0
    0.3449   -2.2522    0.0000 C   0  0  0  0  0  0  0  0  0  0  0  0
  1  2  1  0  0  0  0
  2  3  1  0  0  0  0
  2  4  2  0  0  0  0
  4  5  1  0  0  0  0
  5  6  1  0  0  0  0
  5 21  1  0  0  0  0
  6  7  1  0  0  0  0
  6 21  1  0  0  0  0
  7  8  2  0  0  0  0
  7  9  1  0  0  0  0
  9 10  1  0  0  0  0
 10 11  1  0  0  0  0
 11 12  1  0  0  0  0
 11 19  1  0  0  0  0
 12 13  2  0  0  0  0
 12 14  1  0  0  0  0
 14 15  1  0  0  0  0
 15 16  1  0  0  0  0
 15 19  1  0  0  0  0
 16 17  1  0  0  0  0
 17 18  3  0  0  0  0
 19 20  2  0  0  0  0
 21 22  1  0  0  0  0
 21 23  1  0  0  0  0
M  END
$$$$
InChI=1S/C19H17Cl2N3O3/c1-13-9-25-19(27-13,10-24-12-22-11-23-24)17-7-6-16(8-18(17)21)26-15-4-2-14(20)3-5-15/h2-8,11-13H,9-10H2,1H3
 OpenBabel03171423152D

 27 30  0  0  0  0  0  0  0  0999 V2000
    3.7273   -1.5018    0.0000 C   0  0  0  0  0  0  0  0  0  0  0  0
    7.2040    3.1576    0.0000 C   0  0  0  0  0  0  0  0  0  0  0  0
    6.9069    1.7599    0.0000 C   0  0  0  0  0  0  0  0  0  0  0  0
    6.3970    3.3291    0.0000 C   0  0  0  0  0  0  0  0  0  0  0  0
    6.0999    1.9314    0.0000 C   0  0  0  0  0  0  0  0  0  0  0  0
    3.6790    2.4460    0.0000 C   0  0  0  0  0  0  0  0  0  0  0  0
    3.1270    1.8329    0.0000 C   0  0  0  0  0  0  0  0  0  0  0  0
    4.7409    1.4899    0.0000 C   0  0  0  0  0  0  0  0  0  0  0  0
    2.4174   -0.8343    0.0000 C   0  0  0  0  0  0  0  0  0  0  0  0
    2.2778    1.0483    0.0000 C   0  0  0  0  0  0  0  0  0  0  0  0
    0.1433    1.0163    0.0000 C   0  0  0  0  0  0  0  0  0  0  0  0
    1.1353    0.1231    0.0000 C   0  0  0  0  0  0  0  0  0  0  0  0
    3.2424   -0.8343    0.0000 C   0  0  3  0  0  0  0  0  0  0  0  0
    7.4589    2.3730    0.0000 C   0  0  0  0  0  0  0  0  0  0  0  0
    5.8450    2.7160    0.0000 C   0  0  0  0  0  0  0  0  0  0  0  0
    4.4860    2.2745    0.0000 C   0  0  0  0  0  0  0  0  0  0  0  0
    3.3819    1.0483    0.0000 C   0  0  0  0  0  0  0  0  0  0  0  0
    4.1889    0.8768    0.0000 C   0  0  0  0  0  0  0  0  0  0  0  0
    2.8299    0.4352    0.0000 C   0  0  3  0  0  0  0  0  0  0  0  0
    8.2659    2.2015    0.0000 Cl  0  0  0  0  0  0  0  0  0  0  0  0
    4.4438    0.0921    0.0000 Cl  0  0  0  0  0  0  0  0  0  0  0  0
    0.3148    0.2093    0.0000 N   0  0  0  0  0  0  0  0  0  0  0  0
    0.8578    1.4288    0.0000 N   0  0  0  0  0  0  0  0  0  0  0  0
    1.4709    0.8768    0.0000 N   0  0  0  0  0  0  0  0  0  0  0  0
    2.1624   -0.0497    0.0000 O   0  0  0  0  0  0  0  0  0  0  0  0
    5.0380    2.8876    0.0000 O   0  0  0  0  0  0  0  0  0  0  0  0
    3.4973   -0.0497    0.0000 O   0  0  0  0  0  0  0  0  0  0  0  0
  4  2  1  0  0  0  0
  5  3  2  0  0  0  0
  7  6  2  0  0  0  0
 13  1  1  0  0  0  0
 13  9  1  0  0  0  0
 14  2  2  0  0  0  0
 14  3  1  0  0  0  0
 15  4  2  0  0  0  0
 15  5  1  0  0  0  0
 16  6  1  0  0  0  0
 16  8  2  0  0  0  0
 17  7  1  0  0  0  0
 18  8  1  0  0  0  0
 18 17  2  0  0  0  0
 19 10  1  0  0  0  0
 19 17  1  0  0  0  0
 20 14  1  0  0  0  0
 21 18  1  0  0  0  0
 22 11  1  0  0  0  0
 22 12  2  0  0  0  0
 23 11  2  0  0  0  0
 24 10  1  0  0  0  0
 24 12  1  0  0  0  0
 24 23  1  0  0  0  0
 25  9  1  0  0  0  0
 25 19  1  0  0  0  0
 26 15  1  0  0  0  0
 26 16  1  0  0  0  0
 27 13  1  0  0  0  0
 27 19  1  0  0  0  0
M  END
$$$$
Formetanate hydrochloride
 OpenBabel03171423152D

 17 16  0  0  0  0  0  0  0  0999 V2000
    0.0000    0.0000    0.0000 Cl  0  5  0  0  0  0  0  0  0  0  0  0
    7.2406    2.8359    0.0000 C   0  0  0  0  0  0  0  0  0  0  0  0
    6.5261    2.4234    0.0000 N   0  3  0  0  0  0  0  0  0  0  0  0
    6.5261    1.5984    0.0000 C   0  0  0  0  0  0  0  0  0  0  0  0
    7.2406    1.1859    0.0000 O   0  0  0  0  0  0  0  0  0  0  0  0
    5.8116    1.1859    0.0000 O   0  0  0  0  0  0  0  0  0  0  0  0
    5.8116    0.3609    0.0000 C   0  0  0  0  0  0  0  0  0  0  0  0
    6.5261   -0.0516    0.0000 C   0  0  0  0  0  0  0  0  0  0  0  0
    6.5261   -0.8766    0.0000 C   0  0  0  0  0  0  0  0  0  0  0  0
    5.8116   -1.2891    0.0000 C   0  0  0  0  0  0  0  0  0  0  0  0
    5.0972   -0.8766    0.0000 C   0  0  0  0  0  0  0  0  0  0  0  0
    5.0972   -0.0516    0.0000 C   0  0  0  0  0  0  0  0  0  0  0  0
    4.3827   -1.2891    0.0000 N   0  0  0  0  0  0  0  0  0  0  0  0
    3.6682   -0.8766    0.0000 C   0  0  0  0  0  0  0  0  0  0  0  0
    2.9538   -1.2891    0.0000 N   0  0  0  0  0  0  0  0  0  0  0  0
    2.9538   -2.1141    0.0000 C   0  0  0  0  0  0  0  0  0  0  0  0
    2.2393   -0.8766    0.0000 C   0  0  0  0  0  0  0  0  0  0  0  0
  2  3  1  0  0  0  0
  3  4  1  0  0  0  0
  4  5  2  0  0  0  0
  4  6  1  0  0  0  0
  6  7  1  0  0  0  0
  7  8  2  0  0  0  0
  7 12  1  0  0  0  0
  8  9  1  0  0  0  0
  9 10  2  0  0  0  0
 10 11  1  0  0  0  0
 11 12  2  0  0  0  0
 11 13  1  0  0  0  0
 13 14  2  0  0  0  0
 14 15  1  0  0  0  0
 15 16  1  0  0  0  0
 15 17  1  0  0  0  0
M  CHG  2   1  -1   3   1
M  END
$$$$
ethalfluralin
 OpenBabel03171423152D

 23 23  0  0  0  0  0  0  0  0999 V2000
    1.4289   -2.4750    0.0000 C   0  0  0  0  0  0  0  0  0  0  0  0
    0.7145   -2.0625    0.0000 C   0  0  0  0  0  0  0  0  0  0  0  0
    0.7145   -1.2375    0.0000 N   0  0  0  0  0  0  0  0  0  0  0  0
    1.4289   -0.8250    0.0000 C   0  0  0  0  0  0  0  0  0  0  0  0
    2.1434   -1.2375    0.0000 C   0  0  0  0  0  0  0  0  0  0  0  0
    2.8579   -0.8250    0.0000 C   0  0  0  0  0  0  0  0  0  0  0  0
    2.1434   -2.0625    0.0000 C   0  0  0  0  0  0  0  0  0  0  0  0
    0.0000   -0.8250    0.0000 C   0  0  0  0  0  0  0  0  0  0  0  0
   -0.7145   -1.2375    0.0000 C   0  0  0  0  0  0  0  0  0  0  0  0
   -1.4289   -0.8250    0.0000 C   0  0  0  0  0  0  0  0  0  0  0  0
   -1.4289   -0.0000    0.0000 C   0  0  0  0  0  0  0  0  0  0  0  0
   -0.7145    0.4125    0.0000 C   0  0  0  0  0  0  0  0  0  0  0  0
    0.0000   -0.0000    0.0000 C   0  0  0  0  0  0  0  0  0  0  0  0
    0.7145    0.4125    0.0000 N   0  3  0  0  0  0  0  0  0  0  0  0
    1.4289    0.0000    0.0000 O   0  5  0  0  0  0  0  0  0  0  0  0
    0.7145    1.2375    0.0000 O   0  0  0  0  0  0  0  0  0  0  0  0
   -2.1434    0.4125    0.0000 C   0  0  0  0  0  0  0  0  0  0  0  0
   -2.8579    0.8250    0.0000 F   0  0  0  0  0  0  0  0  0  0  0  0
   -1.7309    1.1270    0.0000 F   0  0  0  0  0  0  0  0  0  0  0  0
   -2.5559   -0.3020    0.0000 F   0  0  0  0  0  0  0  0  0  0  0  0
   -0.7145   -2.0625    0.0000 N   0  3  0  0  0  0  0  0  0  0  0  0
   -1.4289   -2.4750    0.0000 O   0  5  0  0  0  0  0  0  0  0  0  0
   -0.0000   -2.4750    0.0000 O   0  0  0  0  0  0  0  0  0  0  0  0
  1  2  1  0  0  0  0
  2  3  1  0  0  0  0
  3  4  1  0  0  0  0
  3  8  1  0  0  0  0
  4  5  1  0  0  0  0
  5  6  1  0  0  0  0
  5  7  2  0  0  0  0
  8  9  2  0  0  0  0
  8 13  1  0  0  0  0
  9 10  1  0  0  0  0
  9 21  1  0  0  0  0
 10 11  2  0  0  0  0
 11 12  1  0  0  0  0
 11 17  1  0  0  0  0
 12 13  2  0  0  0  0
 13 14  1  0  0  0  0
 14 15  1  0  0  0  0
 14 16  2  0  0  0  0
 17 18  1  0  0  0  0
 17 19  1  0  0  0  0
 17 20  1  0  0  0  0
 21 22  1  0  0  0  0
 21 23  2  0  0  0  0
M  CHG  4  14   1  15  -1  21   1  22  -1
M  END
$$$$
methyl (E)-2-{2-[6-(2-cyanophenoxy)pyrimidin-4-yloxy]phenyl}-3-methoxyacrylate
 OpenBabel03171423152D

 30 32  0  0  0  0  0  0  0  0999 V2000
    5.7158   -2.4750    0.0000 C   0  0  0  0  0  0  0  0  0  0  0  0
    5.0013   -2.8875    0.0000 O   0  0  0  0  0  0  0  0  0  0  0  0
    4.2868   -2.4750    0.0000 C   0  0  0  0  0  0  0  0  0  0  0  0
    3.5724   -2.8875    0.0000 C   0  0  0  0  0  0  0  0  0  0  0  0
    2.8579   -2.4750    0.0000 C   0  0  0  0  0  0  0  0  0  0  0  0
    2.8579   -1.6500    0.0000 O   0  0  0  0  0  0  0  0  0  0  0  0
    2.1434   -2.8875    0.0000 O   0  0  0  0  0  0  0  0  0  0  0  0
    1.4289   -2.4750    0.0000 C   0  0  0  0  0  0  0  0  0  0  0  0
    3.5724   -3.7125    0.0000 C   0  0  0  0  0  0  0  0  0  0  0  0
    4.2868   -4.1250    0.0000 C   0  0  0  0  0  0  0  0  0  0  0  0
    5.0013   -3.7125    0.0000 O   0  0  0  0  0  0  0  0  0  0  0  0
    5.7158   -4.1250    0.0000 C   0  0  0  0  0  0  0  0  0  0  0  0
    6.4302   -3.7125    0.0000 C   0  0  0  0  0  0  0  0  0  0  0  0
    7.1447   -4.1250    0.0000 C   0  0  0  0  0  0  0  0  0  0  0  0
    7.8592   -3.7125    0.0000 O   0  0  0  0  0  0  0  0  0  0  0  0
    8.5737   -4.1250    0.0000 C   0  0  0  0  0  0  0  0  0  0  0  0
    9.2881   -3.7125    0.0000 C   0  0  0  0  0  0  0  0  0  0  0  0
   10.0026   -4.1250    0.0000 C   0  0  0  0  0  0  0  0  0  0  0  0
   10.0026   -4.9500    0.0000 C   0  0  0  0  0  0  0  0  0  0  0  0
    9.2881   -5.3625    0.0000 C   0  0  0  0  0  0  0  0  0  0  0  0
    8.5737   -4.9500    0.0000 C   0  0  0  0  0  0  0  0  0  0  0  0
    9.2881   -2.8875    0.0000 C   0  0  0  0  0  0  0  0  0  0  0  0
    9.2881   -2.0625    0.0000 N   0  0  0  0  0  0  0  0  0  0  0  0
    7.1447   -4.9500    0.0000 N   0  0  0  0  0  0  0  0  0  0  0  0
    6.4302   -5.3625    0.0000 C   0  0  0  0  0  0  0  0  0  0  0  0
    5.7158   -4.9500    0.0000 N   0  0  0  0  0  0  0  0  0  0  0  0
    4.2868   -4.9500    0.0000 C   0  0  0  0  0  0  0  0  0  0  0  0
    3.5724   -5.3625    0.0000 C   0  0  0  0  0  0  0  0  0  0  0  0
    2.8579   -4.9500    0.0000 C   0  0  0  0  0  0  0  0  0  0  0  0
    2.8579   -4.1250    0.0000 C   0  0  0  0  0  0  0  0  0  0  0  0
  1  2  1  0  0  0  0
  2  3  1  0  0  0  0
  3  4  2  0  0  0  0
  4  5  1  0  0  0  0
  4  9  1  0  0  0  0
  5  6  2  0  0  0  0
  5  7  1  0  0  0  0
  7  8  1  0  0  0  0
  9 10  2  0  0  0  0
  9 30  1  0  0  0  0
 10 11  1  0  0  0  0
 10 27  1  0  0  0  0
 11 12  1  0  0  0  0
 12 13  2  0  0  0  0
 12 26  1  0  0  0  0
 13 14  1  0  0  0  0
 14 15  1  0  0  0  0
 14 24  2  0  0  0  0
 15 16  1  0  0  0  0
 16 17  2  0  0  0  0
 16 21  1  0  0  0  0
 17 18  1  0  0  0  0
 17 22  1  0  0  0  0
 18 19  2  0  0  0  0
 19 20  1  0  0  0  0
 20 21  2  0  0  0  0
 22 23  3  0  0  0  0
 24 25  1  0  0  0  0
 25 26  2  0  0  0  0
 27 28  2  0  0  0  0
 28 29  1  0  0  0  0
 29 30  2  0  0  0  0
M  END
$$$$
maltotriose
 OpenBabel03171423152D

 34 36  0  0  1  0  0  0  0  0999 V2000
   -1.4289   -2.4750    0.0000 O   0  0  0  0  0  0  0  0  0  0  0  0
   -2.1434   -2.8875    0.0000 C   0  0  0  0  0  0  0  0  0  0  0  0
   -2.1434   -3.7125    0.0000 C   0  0  1  0  0  0  0  0  0  0  0  0
   -2.8579   -4.1250    0.0000 O   0  0  0  0  0  0  0  0  0  0  0  0
   -2.8579   -4.9500    0.0000 C   0  0  2  0  0  0  0  0  0  0  0  0
   -3.5724   -5.3625    0.0000 O   0  0  0  0  0  0  0  0  0  0  0  0
   -4.2868   -4.9500    0.0000 C   0  0  1  0  0  0  0  0  0  0  0  0
   -4.2868   -4.1250    0.0000 C   0  0  2  0  0  0  0  0  0  0  0  0
   -3.5724   -3.7125    0.0000 O   0  0  0  0  0  0  0  0  0  0  0  0
   -5.0013   -3.7125    0.0000 C   0  0  1  0  0  0  0  0  0  0  0  0
   -5.0013   -2.8875    0.0000 O   0  0  0  0  0  0  0  0  0  0  0  0
   -5.7158   -4.1250    0.0000 C   0  0  1  0  0  0  0  0  0  0  0  0
   -6.4302   -3.7125    0.0000 O   0  0  0  0  0  0  0  0  0  0  0  0
   -7.1447   -4.1250    0.0000 C   0  0  1  0  0  0  0  0  0  0  0  0
   -7.1447   -4.9500    0.0000 C   0  0  2  0  0  0  0  0  0  0  0  0
   -6.4302   -5.3625    0.0000 O   0  0  0  0  0  0  0  0  0  0  0  0
   -7.8592   -5.3625    0.0000 C   0  0  1  0  0  0  0  0  0  0  0  0
   -7.8592   -6.1875    0.0000 O   0  0  0  0  0  0  0  0  0  0  0  0
   -8.5737   -4.9500    0.0000 C   0  0  1  0  0  0  0  0  0  0  0  0
   -9.2881   -5.3625    0.0000 O   0  0  0  0  0  0  0  0  0  0  0  0
   -8.5737   -4.1250    0.0000 O   0  0  0  0  0  0  0  0  0  0  0  0
   -7.8592   -3.7125    0.0000 C   0  0  2  0  0  0  0  0  0  0  0  0
   -7.8592   -2.8875    0.0000 C   0  0  0  0  0  0  0  0  0  0  0  0
   -7.1447   -2.4750    0.0000 O   0  0  0  0  0  0  0  0  0  0  0  0
   -5.7158   -4.9500    0.0000 O   0  0  0  0  0  0  0  0  0  0  0  0
   -5.0013   -5.3625    0.0000 C   0  0  2  0  0  0  0  0  0  0  0  0
   -5.0013   -6.1875    0.0000 C   0  0  0  0  0  0  0  0  0  0  0  0
   -4.2868   -6.6000    0.0000 O   0  0  0  0  0  0  0  0  0  0  0  0
   -2.1434   -5.3625    0.0000 C   0  0  2  0  0  0  0  0  0  0  0  0
   -2.1434   -6.1875    0.0000 O   0  0  0  0  0  0  0  0  0  0  0  0
   -1.4289   -4.9500    0.0000 C   0  0  1  0  0  0  0  0  0  0  0  0
   -0.7145   -5.3625    0.0000 O   0  0  0  0  0  0  0  0  0  0  0  0
   -1.4289   -4.1250    0.0000 C   0  0  2  0  0  0  0  0  0  0  0  0
   -0.7145   -3.7125    0.0000 O   0  0  0  0  0  0  0  0  0  0  0  0
  1  2  1  0  0  0  0
  3  2  1  6  0  0  0
  3  4  1  0  0  0  0
  3 33  1  0  0  0  0
  4  5  1  0  0  0  0
  5  6  1  1  0  0  0
  5 29  1  0  0  0  0
  7  6  1  6  0  0  0
  7  8  1  0  0  0  0
  7 26  1  0  0  0  0
  8  9  1  1  0  0  0
  8 10  1  0  0  0  0
 10 11  1  6  0  0  0
 10 12  1  0  0  0  0
 12 13  1  6  0  0  0
 12 25  1  0  0  0  0
 14 13  1  1  0  0  0
 14 15  1  0  0  0  0
 14 22  1  0  0  0  0
 15 16  1  6  0  0  0
 15 17  1  0  0  0  0
 17 18  1  1  0  0  0
 17 19  1  0  0  0  0
 19 20  1  1  0  0  0
 19 21  1  0  0  0  0
 21 22  1  0  0  0  0
 22 23  1  6  0  0  0
 23 24  1  0  0  0  0
 25 26  1  0  0  0  0
 26 27  1  1  0  0  0
 27 28  1  0  0  0  0
 29 30  1  1  0  0  0
 29 31  1  0  0  0  0
 31 32  1  6  0  0  0
 31 33  1  0  0  0  0
 33 34  1  1  0  0  0
M  END
$$$$
Citronellal
 OpenBabel03171423152D

 11 10  0  0  0  0  0  0  0  0999 V2000
    3.9039    0.6039    0.0000 C   0  0  0  0  0  0  0  0  0  0  0  0
    3.9039    1.4289    0.0000 C   0  0  3  0  0  0  0  0  0  0  0  0
    3.1895    1.8414    0.0000 C   0  0  0  0  0  0  0  0  0  0  0  0
    2.4750    1.4289    0.0000 C   0  0  0  0  0  0  0  0  0  0  0  0
    1.7605    1.8414    0.0000 C   0  0  0  0  0  0  0  0  0  0  0  0
    1.7605    2.6664    0.0000 C   0  0  0  0  0  0  0  0  0  0  0  0
    1.0461    3.0789    0.0000 C   0  0  0  0  0  0  0  0  0  0  0  0
    2.4750    3.0789    0.0000 C   0  0  0  0  0  0  0  0  0  0  0  0
    4.6184    1.8414    0.0000 C   0  0  0  0  0  0  0  0  0  0  0  0
    5.3329    1.4289    0.0000 C   0  0  0  0  0  0  0  0  0  0  0  0
    6.0474    1.8414    0.0000 O   0  0  0  0  0  0  0  0  0  0  0  0
  1  2  1  0  0  0  0
  2  3  1  0  0  0  0
  2  9  1  0  0  0  0
  3  4  1  0  0  0  0
  4  5  1  0  0  0  0
  5  6  2  0  0  0  0
  6  7  1  0  0  0  0
  6  8  1  0  0  0  0
  9 10  1  0  0  0  0
 10 11  2  0  0  0  0
M  END
$$$$
Ethoprop
 OpenBabel03171423152D

 13 12  0  0  0  0  0  0  0  0999 V2000
    4.9500   -2.8579    0.0000 C   0  0  0  0  0  0  0  0  0  0  0  0
    4.1250   -2.8579    0.0000 C   0  0  0  0  0  0  0  0  0  0  0  0
    3.7125   -2.1434    0.0000 C   0  0  0  0  0  0  0  0  0  0  0  0
    2.8875   -2.1434    0.0000 S   0  0  0  0  0  0  0  0  0  0  0  0
    2.4750   -1.4289    0.0000 P   0  0  0  0  0  0  0  0  0  0  0  0
    3.1895   -1.0164    0.0000 O   0  0  0  0  0  0  0  0  0  0  0  0
    1.7605   -1.8414    0.0000 O   0  0  0  0  0  0  0  0  0  0  0  0
    1.0461   -1.4289    0.0000 C   0  0  0  0  0  0  0  0  0  0  0  0
    0.3316   -1.8414    0.0000 C   0  0  0  0  0  0  0  0  0  0  0  0
    2.0625   -0.7145    0.0000 S   0  0  0  0  0  0  0  0  0  0  0  0
    1.2375   -0.7145    0.0000 C   0  0  0  0  0  0  0  0  0  0  0  0
    0.8250    0.0000    0.0000 C   0  0  0  0  0  0  0  0  0  0  0  0
    0.0000    0.0000    0.0000 C   0  0  0  0  0  0  0  0  0  0  0  0
  1  2  1  0  0  0  0
  2  3  1  0  0  0  0
  3  4  1  0  0  0  0
  4  5  1  0  0  0  0
  5  6  2  0  0  0  0
  5  7  1  0  0  0  0
  5 10  1  0  0  0  0
  7  8  1  0  0  0  0
  8  9  1  0  0  0  0
 10 11  1  0  0  0  0
 11 12  1  0  0  0  0
 12 13  1  0  0  0  0
M  END
$$$$
InChI=1S/C18H19NO4/c1-13-8-4-7-11-16(13)23-12-14-9-5-6-10-15(14)17(19-22-3)18(20)21-2/h4-11H,12H2,1-3H3/b19-17+
 OpenBabel03171423152D

 23 24  0  0  0  0  0  0  0  0999 V2000
   -1.4289    4.9500    0.0000 C   0  0  0  0  0  0  0  0  0  0  0  0
   -2.8579    4.9500    0.0000 C   0  0  0  0  0  0  0  0  0  0  0  0
   -3.5724    8.6625    0.0000 C   0  0  0  0  0  0  0  0  0  0  0  0
   -0.0000    3.3000    0.0000 C   0  0  0  0  0  0  0  0  0  0  0  0
   -0.0000    8.2500    0.0000 C   0  0  0  0  0  0  0  0  0  0  0  0
   -0.7145    8.6625    0.0000 C   0  0  0  0  0  0  0  0  0  0  0  0
    0.7145    3.7125    0.0000 C   0  0  0  0  0  0  0  0  0  0  0  0
   -0.7145    3.7125    0.0000 C   0  0  0  0  0  0  0  0  0  0  0  0
   -0.0000    7.4250    0.0000 C   0  0  0  0  0  0  0  0  0  0  0  0
   -1.4289    8.2500    0.0000 C   0  0  0  0  0  0  0  0  0  0  0  0
    0.7145    4.5375    0.0000 C   0  0  0  0  0  0  0  0  0  0  0  0
   -0.7145    6.1875    0.0000 C   0  0  0  0  0  0  0  0  0  0  0  0
   -0.7145    4.5375    0.0000 C   0  0  0  0  0  0  0  0  0  0  0  0
   -0.7145    7.0125    0.0000 C   0  0  0  0  0  0  0  0  0  0  0  0
   -1.4289    7.4250    0.0000 C   0  0  0  0  0  0  0  0  0  0  0  0
   -0.0000    4.9500    0.0000 C   0  0  0  0  0  0  0  0  0  0  0  0
   -2.1434    7.0125    0.0000 C   0  0  0  0  0  0  0  0  0  0  0  0
   -2.1434    6.1875    0.0000 C   0  0  0  0  0  0  0  0  0  0  0  0
   -2.8579    7.4250    0.0000 N   0  0  0  0  0  0  0  0  0  0  0  0
   -1.4289    5.7750    0.0000 O   0  0  0  0  0  0  0  0  0  0  0  0
   -2.8579    5.7750    0.0000 O   0  0  0  0  0  0  0  0  0  0  0  0
   -2.8579    8.2500    0.0000 O   0  0  0  0  0  0  0  0  0  0  0  0
   -0.0000    5.7750    0.0000 O   0  0  0  0  0  0  0  0  0  0  0  0
  6  5  2  0  0  0  0
  7  4  2  0  0  0  0
  8  4  1  0  0  0  0
  9  5  1  0  0  0  0
 10  6  1  0  0  0  0
 11  7  1  0  0  0  0
 13  1  1  0  0  0  0
 13  8  2  0  0  0  0
 14  9  2  0  0  0  0
 14 12  1  0  0  0  0
 15 10  2  0  0  0  0
 15 14  1  0  0  0  0
 16 11  2  0  0  0  0
 16 13  1  0  0  0  0
 17 15  1  0  0  0  0
 18 17  1  0  0  0  0
 19 17  2  0  0  0  0
 20 18  2  0  0  0  0
 21  2  1  0  0  0  0
 21 18  1  0  0  0  0
 22  3  1  0  0  0  0
 22 19  1  0  0  0  0
 23 12  1  0  0  0  0
 23 16  1  0  0  0  0
M  END
$$$$
sorbitol
 OpenBabel03171423152D

 12 11  0  0  0  0  0  0  0  0999 V2000
    1.0461    1.4289    0.0000 O   0  0  0  0  0  0  0  0  0  0  0  0
    1.7605    1.8414    0.0000 C   0  0  0  0  0  0  0  0  0  0  0  0
    2.4750    1.4289    0.0000 C   0  0  3  0  0  0  0  0  0  0  0  0
    2.4750    0.6039    0.0000 O   0  0  0  0  0  0  0  0  0  0  0  0
    3.1895    1.8414    0.0000 C   0  0  3  0  0  0  0  0  0  0  0  0
    3.1895    2.6664    0.0000 O   0  0  0  0  0  0  0  0  0  0  0  0
    3.9039    1.4289    0.0000 C   0  0  3  0  0  0  0  0  0  0  0  0
    3.9039    0.6039    0.0000 O   0  0  0  0  0  0  0  0  0  0  0  0
    4.6184    1.8414    0.0000 C   0  0  3  0  0  0  0  0  0  0  0  0
    4.6184    2.6664    0.0000 O   0  0  0  0  0  0  0  0  0  0  0  0
    5.3329    1.4289    0.0000 C   0  0  0  0  0  0  0  0  0  0  0  0
    6.0474    1.8414    0.0000 O   0  0  0  0  0  0  0  0  0  0  0  0
  1  2  1  0  0  0  0
  2  3  1  0  0  0  0
  3  4  1  0  0  0  0
  3  5  1  0  0  0  0
  5  6  1  0  0  0  0
  5  7  1  0  0  0  0
  7  8  1  0  0  0  0
  7  9  1  0  0  0  0
  9 10  1  0  0  0  0
  9 11  1  0  0  0  0
 11 12  1  0  0  0  0
M  END
$$$$
nicosulfuron
 OpenBabel03171423152D

 28 29  0  0  0  0  0  0  0  0999 V2000
   -0.7145   -2.0625    0.0000 C   0  0  0  0  0  0  0  0  0  0  0  0
   -1.4289   -2.4750    0.0000 O   0  0  0  0  0  0  0  0  0  0  0  0
   -1.4289   -3.3000    0.0000 C   0  0  0  0  0  0  0  0  0  0  0  0
   -0.7145   -3.7125    0.0000 C   0  0  0  0  0  0  0  0  0  0  0  0
   -0.7145   -4.5375    0.0000 C   0  0  0  0  0  0  0  0  0  0  0  0
    0.0000   -4.9500    0.0000 O   0  0  0  0  0  0  0  0  0  0  0  0
    0.0000   -5.7750    0.0000 C   0  0  0  0  0  0  0  0  0  0  0  0
   -1.4289   -4.9500    0.0000 N   0  0  0  0  0  0  0  0  0  0  0  0
   -2.1434   -4.5375    0.0000 C   0  0  0  0  0  0  0  0  0  0  0  0
   -2.8579   -4.9500    0.0000 N   0  0  0  0  0  0  0  0  0  0  0  0
   -2.8579   -5.7750    0.0000 C   0  0  0  0  0  0  0  0  0  0  0  0
   -2.1434   -6.1875    0.0000 O   0  0  0  0  0  0  0  0  0  0  0  0
   -3.5724   -6.1875    0.0000 N   0  0  0  0  0  0  0  0  0  0  0  0
   -3.5724   -7.0125    0.0000 S   0  0  0  0  0  0  0  0  0  0  0  0
   -4.3974   -7.0125    0.0000 O   0  0  0  0  0  0  0  0  0  0  0  0
   -2.7474   -7.0125    0.0000 O   0  0  0  0  0  0  0  0  0  0  0  0
   -3.5724   -7.8375    0.0000 C   0  0  0  0  0  0  0  0  0  0  0  0
   -2.8579   -8.2500    0.0000 N   0  0  0  0  0  0  0  0  0  0  0  0
   -2.8579   -9.0750    0.0000 C   0  0  0  0  0  0  0  0  0  0  0  0
   -3.5724   -9.4875    0.0000 C   0  0  0  0  0  0  0  0  0  0  0  0
   -4.2868   -9.0750    0.0000 C   0  0  0  0  0  0  0  0  0  0  0  0
   -4.2868   -8.2500    0.0000 C   0  0  0  0  0  0  0  0  0  0  0  0
   -5.0013   -7.8375    0.0000 C   0  0  0  0  0  0  0  0  0  0  0  0
   -5.0013   -7.0125    0.0000 O   0  0  0  0  0  0  0  0  0  0  0  0
   -5.7158   -8.2500    0.0000 N   0  0  0  0  0  0  0  0  0  0  0  0
   -5.7158   -9.0750    0.0000 C   0  0  0  0  0  0  0  0  0  0  0  0
   -6.4302   -7.8375    0.0000 C   0  0  0  0  0  0  0  0  0  0  0  0
   -2.1434   -3.7125    0.0000 N   0  0  0  0  0  0  0  0  0  0  0  0
  1  2  1  0  0  0  0
  2  3  1  0  0  0  0
  3  4  2  0  0  0  0
  3 28  1  0  0  0  0
  4  5  1  0  0  0  0
  5  6  1  0  0  0  0
  5  8  2  0  0  0  0
  6  7  1  0  0  0  0
  8  9  1  0  0  0  0
  9 10  1  0  0  0  0
  9 28  2  0  0  0  0
 10 11  1  0  0  0  0
 11 12  2  0  0  0  0
 11 13  1  0  0  0  0
 13 14  1  0  0  0  0
 14 15  2  0  0  0  0
 14 16  2  0  0  0  0
 14 17  1  0  0  0  0
 17 18  2  0  0  0  0
 17 22  1  0  0  0  0
 18 19  1  0  0  0  0
 19 20  2  0  0  0  0
 20 21  1  0  0  0  0
 21 22  2  0  0  0  0
 22 23  1  0  0  0  0
 23 24  2  0  0  0  0
 23 25  1  0  0  0  0
 25 26  1  0  0  0  0
 25 27  1  0  0  0  0
M  END
$$$$
sodium acrylate
 OpenBabel03171423152D

  6  4  0  0  0  0  0  0  0  0999 V2000
    0.0000    0.0000    0.0000 Na  0  3  0  0  0 15  0  0  0  0  0  0
    4.3018   -0.1429    0.0000 O   0  5  0  0  0  0  0  0  0  0  0  0
    3.4768   -0.1429    0.0000 C   0  0  0  0  0  0  0  0  0  0  0  0
    3.0643   -0.8574    0.0000 O   0  0  0  0  0  0  0  0  0  0  0  0
    3.0643    0.5716    0.0000 C   0  0  0  0  0  0  0  0  0  0  0  0
    2.2393    0.5716    0.0000 C   0  0  0  0  0  0  0  0  0  0  0  0
  2  3  1  0  0  0  0
  3  4  2  0  0  0  0
  3  5  1  0  0  0  0
  5  6  2  0  0  0  0
M  CHG  2   1   1   2  -1
M  END
$$$$
OLEIC ACID oleic acid
 OpenBabel03171423152D

 39 38  0  0  0  0  0  0  0  0999 V2000
    7.0934    9.0454    0.0000 C   0  0  0  0  0  0  0  0  0  0  0  0
    7.0934    8.2204    0.0000 C   0  0  0  0  0  0  0  0  0  0  0  0
    6.3789    7.8079    0.0000 C   0  0  0  0  0  0  0  0  0  0  0  0
    6.3789    6.9829    0.0000 C   0  0  0  0  0  0  0  0  0  0  0  0
    5.6645    6.5704    0.0000 C   0  0  0  0  0  0  0  0  0  0  0  0
    5.6645    5.7454    0.0000 C   0  0  0  0  0  0  0  0  0  0  0  0
    4.9500    5.3329    0.0000 C   0  0  0  0  0  0  0  0  0  0  0  0
    4.9500    4.5079    0.0000 C   0  0  0  0  0  0  0  0  0  0  0  0
    4.2355    4.0954    0.0000 C   0  0  0  0  0  0  0  0  0  0  0  0
    4.2355    3.2704    0.0000 C   0  0  0  0  0  0  0  0  0  0  0  0
    4.9500    2.8579    0.0000 C   0  0  0  0  0  0  0  0  0  0  0  0
    5.6645    3.2704    0.0000 C   0  0  0  0  0  0  0  0  0  0  0  0
    6.3789    2.8579    0.0000 C   0  0  0  0  0  0  0  0  0  0  0  0
    7.0934    3.2704    0.0000 C   0  0  0  0  0  0  0  0  0  0  0  0
    7.8079    2.8579    0.0000 C   0  0  0  0  0  0  0  0  0  0  0  0
    8.5224    3.2704    0.0000 C   0  0  0  0  0  0  0  0  0  0  0  0
    9.2368    2.8579    0.0000 C   0  0  0  0  0  0  0  0  0  0  0  0
    9.9513    3.2704    0.0000 C   0  0  0  0  0  0  0  0  0  0  0  0
    9.9513    4.0954    0.0000 O   0  0  0  0  0  0  0  0  0  0  0  0
   20.6684   -2.0921    0.0000 C   0  0  0  0  0  0  0  0  0  0  0  0
   19.9539   -1.6796    0.0000 C   0  0  0  0  0  0  0  0  0  0  0  0
   19.9539   -0.8546    0.0000 C   0  0  0  0  0  0  0  0  0  0  0  0
   19.2394   -0.4421    0.0000 C   0  0  0  0  0  0  0  0  0  0  0  0
   19.2394    0.3829    0.0000 C   0  0  0  0  0  0  0  0  0  0  0  0
   18.5249    0.7954    0.0000 C   0  0  0  0  0  0  0  0  0  0  0  0
   18.5249    1.6204    0.0000 C   0  0  0  0  0  0  0  0  0  0  0  0
   17.8105    2.0329    0.0000 C   0  0  0  0  0  0  0  0  0  0  0  0
   17.8105    2.8579    0.0000 C   0  0  0  0  0  0  0  0  0  0  0  0
   17.0960    3.2704    0.0000 C   0  0  0  0  0  0  0  0  0  0  0  0
   16.3815    2.8579    0.0000 C   0  0  0  0  0  0  0  0  0  0  0  0
   15.6671    3.2704    0.0000 C   0  0  0  0  0  0  0  0  0  0  0  0
   14.9526    2.8579    0.0000 C   0  0  0  0  0  0  0  0  0  0  0  0
   14.2381    3.2704    0.0000 C   0  0  0  0  0  0  0  0  0  0  0  0
   13.5237    2.8579    0.0000 C   0  0  0  0  0  0  0  0  0  0  0  0
   12.8092    3.2704    0.0000 C   0  0  0  0  0  0  0  0  0  0  0  0
   12.0947    2.8579    0.0000 C   0  0  0  0  0  0  0  0  0  0  0  0
   11.3802    3.2704    0.0000 C   0  0  0  0  0  0  0  0  0  0  0  0
   10.6658    2.8579    0.0000 O   0  0  0  0  0  0  0  0  0  0  0  0
   11.3802    4.0954    0.0000 O   0  0  0  0  0  0  0  0  0  0  0  0
  1  2  1  0  0  0  0
  2  3  1  0  0  0  0
  3  4  1  0  0  0  0
  4  5  1  0  0  0  0
  5  6  1  0  0  0  0
  6  7  1  0  0  0  0
  7  8  1  0  0  0  0
  8  9  1  0  0  0  0
  9 10  2  0  0  0  0
 10 11  1  0  0  0  0
 11 12  1  0  0  0  0
 12 13  1  0  0  0  0
 13 14  1  0  0  0  0
 14 15  1  0  0  0  0
 15 16  1  0  0  0  0
 16 17  1  0  0  0  0
 17 18  1  0  0  0  0
 18 19  2  0  0  0  0
 18 38  1  0  0  0  0
 20 21  1  0  0  0  0
 21 22  1  0  0  0  0
 22 23  1  0  0  0  0
 23 24  1  0  0  0  0
 24 25  1  0  0  0  0
 25 26  1  0  0  0  0
 26 27  1  0  0  0  0
 27 28  1  0  0  0  0
 28 29  2  0  0  0  0
 29 30  1  0  0  0  0
 30 31  1  0  0  0  0
 31 32  1  0  0  0  0
 32 33  1  0  0  0  0
 33 34  1  0  0  0  0
 34 35  1  0  0  0  0
 35 36  1  0  0  0  0
 36 37  1  0  0  0  0
 37 38  1  0  0  0  0
 37 39  2  0  0  0  0
M  END
>  <type>
systematic

$$$$
Sevin
 OpenBabel03171423152D

 15 16  0  0  0  0  0  0  0  0999 V2000
   -1.4289    2.4750    0.0000 C   0  0  0  0  0  0  0  0  0  0  0  0
   -0.7145    2.0625    0.0000 N   0  0  0  0  0  0  0  0  0  0  0  0
   -0.7145    1.2375    0.0000 C   0  0  0  0  0  0  0  0  0  0  0  0
   -1.4289    0.8250    0.0000 O   0  0  0  0  0  0  0  0  0  0  0  0
    0.0000    0.8250    0.0000 O   0  0  0  0  0  0  0  0  0  0  0  0
    0.0000   -0.0000    0.0000 C   0  0  0  0  0  0  0  0  0  0  0  0
   -0.7145   -0.4125    0.0000 C   0  0  0  0  0  0  0  0  0  0  0  0
   -0.7145   -1.2375    0.0000 C   0  0  0  0  0  0  0  0  0  0  0  0
    0.0000   -1.6500    0.0000 C   0  0  0  0  0  0  0  0  0  0  0  0
    0.7145   -1.2375    0.0000 C   0  0  0  0  0  0  0  0  0  0  0  0
    0.7145   -0.4125    0.0000 C   0  0  0  0  0  0  0  0  0  0  0  0
    1.4289   -0.0000    0.0000 C   0  0  0  0  0  0  0  0  0  0  0  0
    2.1434   -0.4125    0.0000 C   0  0  0  0  0  0  0  0  0  0  0  0
    2.1434   -1.2375    0.0000 C   0  0  0  0  0  0  0  0  0  0  0  0
    1.4289   -1.6500    0.0000 C   0  0  0  0  0  0  0  0  0  0  0  0
  1  2  1  0  0  0  0
  2  3  1  0  0  0  0
  3  4  2  0  0  0  0
  3  5  1  0  0  0  0
  5  6  1  0  0  0  0
  6  7  2  0  0  0  0
  6 11  1  0  0  0  0
  7  8  1  0  0  0  0
  8  9  2  0  0  0  0
  9 10  1  0  0  0  0
 10 11  2  0  0  0  0
 10 15  1  0  0  0  0
 11 12  1  0  0  0  0
 12 13  2  0  0  0  0
 13 14  1  0  0  0  0
 14 15  2  0  0  0  0
M  END
$$$$
triadimefon
 OpenBabel03171423152D

 20 21  0  0  0  0  0  0  0  0999 V2000
    0.6078    0.2277    0.0000 C   0  0  0  0  0  0  0  0  0  0  0  0
    1.3222    0.6402    0.0000 C   0  0  0  0  0  0  0  0  0  0  0  0
    1.7347   -0.0743    0.0000 C   0  0  0  0  0  0  0  0  0  0  0  0
    0.9097    1.3547    0.0000 C   0  0  0  0  0  0  0  0  0  0  0  0
    2.0367    1.0527    0.0000 C   0  0  0  0  0  0  0  0  0  0  0  0
    2.0367    1.8777    0.0000 O   0  0  0  0  0  0  0  0  0  0  0  0
    2.7512    0.6402    0.0000 C   0  0  3  0  0  0  0  0  0  0  0  0
    3.4656    1.0527    0.0000 O   0  0  0  0  0  0  0  0  0  0  0  0
    4.1801    0.6402    0.0000 C   0  0  0  0  0  0  0  0  0  0  0  0
    4.8946    1.0527    0.0000 C   0  0  0  0  0  0  0  0  0  0  0  0
    5.6091    0.6402    0.0000 C   0  0  0  0  0  0  0  0  0  0  0  0
    5.6091   -0.1848    0.0000 C   0  0  0  0  0  0  0  0  0  0  0  0
    6.3235   -0.5973    0.0000 Cl  0  0  0  0  0  0  0  0  0  0  0  0
    4.8946   -0.5973    0.0000 C   0  0  0  0  0  0  0  0  0  0  0  0
    4.1801   -0.1848    0.0000 C   0  0  0  0  0  0  0  0  0  0  0  0
    2.7512   -0.1848    0.0000 N   0  0  0  0  0  0  0  0  0  0  0  0
    3.4186   -0.6697    0.0000 C   0  0  0  0  0  0  0  0  0  0  0  0
    3.1637   -1.4544    0.0000 N   0  0  0  0  0  0  0  0  0  0  0  0
    2.3387   -1.4544    0.0000 C   0  0  0  0  0  0  0  0  0  0  0  0
    2.0837   -0.6697    0.0000 N   0  0  0  0  0  0  0  0  0  0  0  0
  1  2  1  0  0  0  0
  2  3  1  0  0  0  0
  2  4  1  0  0  0  0
  2  5  1  0  0  0  0
  5  6  2  0  0  0  0
  5  7  1  0  0  0  0
  7  8  1  0  0  0  0
  7 16  1  0  0  0  0
  8  9  1  0  0  0  0
  9 10  2  0  0  0  0
  9 15  1  0  0  0  0
 10 11  1  0  0  0  0
 11 12  2  0  0  0  0
 12 13  1  0  0  0  0
 12 14  1  0  0  0  0
 14 15  2  0  0  0  0
 16 17  1  0  0  0  0
 16 20  1  0  0  0  0
 17 18  2  0  0  0  0
 18 19  1  0  0  0  0
 19 20  2  0  0  0  0
M  END
$$$$
di-2 ethylhexyl sulfosuccinate
 OpenBabel03171423152D

 28 27  0  0  0  0  0  0  0  0999 V2000
   -0.1496   -4.6581    0.0000 C   0  0  0  0  0  0  0  0  0  0  0  0
    0.6430   -4.4293    0.0000 C   0  0  0  0  0  0  0  0  0  0  0  0
    1.2375   -5.0013    0.0000 C   0  0  0  0  0  0  0  0  0  0  0  0
    2.0301   -4.7725    0.0000 C   0  0  0  0  0  0  0  0  0  0  0  0
    2.6246   -5.3445    0.0000 C   0  0  3  0  0  0  0  0  0  0  0  0
    2.4265   -6.1454    0.0000 C   0  0  0  0  0  0  0  0  0  0  0  0
    3.0209   -6.7174    0.0000 C   0  0  0  0  0  0  0  0  0  0  0  0
    3.4172   -5.1157    0.0000 C   0  0  0  0  0  0  0  0  0  0  0  0
    4.0117   -5.6877    0.0000 O   0  0  0  0  0  0  0  0  0  0  0  0
    4.8044   -5.4589    0.0000 C   0  0  0  0  0  0  0  0  0  0  0  0
    5.0025   -4.6581    0.0000 O   0  0  0  0  0  0  0  0  0  0  0  0
    5.3988   -6.0310    0.0000 C   0  0  0  0  0  0  0  0  0  0  0  0
    6.1915   -5.8021    0.0000 C   0  0  3  0  0  0  0  0  0  0  0  0
    6.7859   -6.3742    0.0000 C   0  0  0  0  0  0  0  0  0  0  0  0
    6.5878   -7.1750    0.0000 O   0  0  0  0  0  0  0  0  0  0  0  0
    7.5786   -6.1454    0.0000 O   0  0  0  0  0  0  0  0  0  0  0  0
    8.1731   -6.7174    0.0000 C   0  0  0  0  0  0  0  0  0  0  0  0
    8.9657   -6.4886    0.0000 C   0  0  3  0  0  0  0  0  0  0  0  0
    9.1638   -5.6877    0.0000 C   0  0  0  0  0  0  0  0  0  0  0  0
    9.9565   -5.4589    0.0000 C   0  0  0  0  0  0  0  0  0  0  0  0
    9.5602   -7.0606    0.0000 C   0  0  0  0  0  0  0  0  0  0  0  0
   10.3528   -6.8318    0.0000 C   0  0  0  0  0  0  0  0  0  0  0  0
   10.9473   -7.4038    0.0000 C   0  0  0  0  0  0  0  0  0  0  0  0
   11.7399   -7.1750    0.0000 C   0  0  0  0  0  0  0  0  0  0  0  0
    6.3896   -5.0013    0.0000 S   0  0  0  0  0  0  0  0  0  0  0  0
    7.1905   -5.1995    0.0000 O   0  0  0  0  0  0  0  0  0  0  0  0
    5.5888   -4.8031    0.0000 O   0  0  0  0  0  0  0  0  0  0  0  0
    6.5878   -4.2004    0.0000 O   0  0  0  0  0  0  0  0  0  0  0  0
  1  2  1  0  0  0  0
  2  3  1  0  0  0  0
  3  4  1  0  0  0  0
  4  5  1  0  0  0  0
  5  6  1  0  0  0  0
  5  8  1  0  0  0  0
  6  7  1  0  0  0  0
  8  9  1  0  0  0  0
  9 10  1  0  0  0  0
 10 11  2  0  0  0  0
 10 12  1  0  0  0  0
 12 13  1  0  0  0  0
 13 14  1  0  0  0  0
 13 25  1  0  0  0  0
 14 15  2  0  0  0  0
 14 16  1  0  0  0  0
 16 17  1  0  0  0  0
 17 18  1  0  0  0  0
 18 19  1  0  0  0  0
 18 21  1  0  0  0  0
 19 20  1  0  0  0  0
 21 22  1  0  0  0  0
 22 23  1  0  0  0  0
 23 24  1  0  0  0  0
 25 26  1  0  0  0  0
 25 27  2  0  0  0  0
 25 28  2  0  0  0  0
M  END
$$$$
Parol
 OpenBabel03171423152D

  9  9  0  0  0  0  0  0  0  0999 V2000
    0.7145    2.0625    0.0000 C   0  0  0  0  0  0  0  0  0  0  0  0
    0.7145    1.2375    0.0000 C   0  0  0  0  0  0  0  0  0  0  0  0
    1.4289    0.8250    0.0000 C   0  0  0  0  0  0  0  0  0  0  0  0
    2.1434    1.2375    0.0000 Cl  0  0  0  0  0  0  0  0  0  0  0  0
    1.4289   -0.0000    0.0000 C   0  0  0  0  0  0  0  0  0  0  0  0
    0.7145   -0.4125    0.0000 C   0  0  0  0  0  0  0  0  0  0  0  0
    0.0000    0.0000    0.0000 C   0  0  0  0  0  0  0  0  0  0  0  0
   -0.7145   -0.4125    0.0000 O   0  0  0  0  0  0  0  0  0  0  0  0
    0.0000    0.8250    0.0000 C   0  0  0  0  0  0  0  0  0  0  0  0
  1  2  1  0  0  0  0
  2  3  2  0  0  0  0
  2  9  1  0  0  0  0
  3  4  1  0  0  0  0
  3  5  1  0  0  0  0
  5  6  2  0  0  0  0
  6  7  1  0  0  0  0
  7  8  1  0  0  0  0
  7  9  2  0  0  0  0
M  END
$$$$
flonicamid
 OpenBabel03171423152D

 16 16  0  0  0  0  0  0  0  0999 V2000
   -0.7145    0.4125    0.0000 F   0  0  0  0  0  0  0  0  0  0  0  0
   -1.4289    0.0000    0.0000 C   0  0  0  0  0  0  0  0  0  0  0  0
   -1.8414    0.7145    0.0000 F   0  0  0  0  0  0  0  0  0  0  0  0
   -1.0164   -0.7145    0.0000 F   0  0  0  0  0  0  0  0  0  0  0  0
   -2.1434   -0.4125    0.0000 C   0  0  0  0  0  0  0  0  0  0  0  0
   -2.1434   -1.2375    0.0000 C   0  0  0  0  0  0  0  0  0  0  0  0
   -2.8579   -1.6500    0.0000 C   0  0  0  0  0  0  0  0  0  0  0  0
   -3.5724   -1.2375    0.0000 N   0  0  0  0  0  0  0  0  0  0  0  0
   -3.5724   -0.4125    0.0000 C   0  0  0  0  0  0  0  0  0  0  0  0
   -2.8579    0.0000    0.0000 C   0  0  0  0  0  0  0  0  0  0  0  0
   -1.4289   -1.6500    0.0000 C   0  0  0  0  0  0  0  0  0  0  0  0
   -1.4289   -2.4750    0.0000 O   0  0  0  0  0  0  0  0  0  0  0  0
   -0.7145   -1.2375    0.0000 N   0  0  0  0  0  0  0  0  0  0  0  0
   -0.0000   -1.6500    0.0000 C   0  0  0  0  0  0  0  0  0  0  0  0
    0.7145   -1.2375    0.0000 C   0  0  0  0  0  0  0  0  0  0  0  0
    1.4289   -0.8250    0.0000 N   0  0  0  0  0  0  0  0  0  0  0  0
  1  2  1  0  0  0  0
  2  3  1  0  0  0  0
  2  4  1  0  0  0  0
  2  5  1  0  0  0  0
  5  6  2  0  0  0  0
  5 10  1  0  0  0  0
  6  7  1  0  0  0  0
  6 11  1  0  0  0  0
  7  8  2  0  0  0  0
  8  9  1  0  0  0  0
  9 10  2  0  0  0  0
 11 12  2  0  0  0  0
 11 13  1  0  0  0  0
 13 14  1  0  0  0  0
 14 15  1  0  0  0  0
 15 16  3  0  0  0  0
M  END
$$$$
sodium dodecyl benzene
 OpenBabel03171423152D

 19 18  0  0  0  0  0  0  0  0999 V2000
    0.0000    0.0000    0.0000 Na  0  3  0  0  0 15  0  0  0  0  0  0
    2.2393    0.0000    0.0000 C   0  0  0  0  0  0  0  0  0  0  0  0
    2.9538    0.4125    0.0000 C   0  0  0  0  0  0  0  0  0  0  0  0
    3.6682    0.0000    0.0000 C   0  0  0  0  0  0  0  0  0  0  0  0
    4.3827    0.4125    0.0000 C   0  0  0  0  0  0  0  0  0  0  0  0
    5.0972    0.0000    0.0000 C   0  0  0  0  0  0  0  0  0  0  0  0
    5.8116    0.4125    0.0000 C   0  0  0  0  0  0  0  0  0  0  0  0
    6.5261    0.0000    0.0000 C   0  0  0  0  0  0  0  0  0  0  0  0
    7.2406    0.4125    0.0000 C   0  0  0  0  0  0  0  0  0  0  0  0
    7.9551    0.0000    0.0000 C   0  0  0  0  0  0  0  0  0  0  0  0
    8.6695    0.4125    0.0000 C   0  0  0  0  0  0  0  0  0  0  0  0
    9.3840    0.0000    0.0000 C   0  0  0  0  0  0  0  0  0  0  0  0
   10.0985    0.4125    0.0000 C   0  0  0  0  0  0  0  0  0  0  0  0
   10.8129    0.0000    0.0000 C   0  0  0  0  0  0  0  0  0  0  0  0
   11.5274    0.4125    0.0000 C   0  0  0  0  0  0  0  0  0  0  0  0
   12.2419    0.0000    0.0000 C   0  0  0  0  0  0  0  0  0  0  0  0
   12.2419   -0.8250    0.0000 C   0  0  0  0  0  0  0  0  0  0  0  0
   11.5274   -1.2375    0.0000 C   0  0  0  0  0  0  0  0  0  0  0  0
   10.8129   -0.8250    0.0000 C   0  0  0  0  0  0  0  0  0  0  0  0
  2  3  1  0  0  0  0
  3  4  1  0  0  0  0
  4  5  1  0  0  0  0
  5  6  1  0  0  0  0
  6  7  1  0  0  0  0
  7  8  1  0  0  0  0
  8  9  1  0  0  0  0
  9 10  1  0  0  0  0
 10 11  1  0  0  0  0
 11 12  1  0  0  0  0
 12 13  1  0  0  0  0
 13 14  1  0  0  0  0
 14 15  2  0  0  0  0
 14 19  1  0  0  0  0
 15 16  1  0  0  0  0
 16 17  2  0  0  0  0
 17 18  1  0  0  0  0
 18 19  2  0  0  0  0
M  CHG  1   1   1
M  END
$$$$
triclopyr
 OpenBabel03171423152D

 14 14  0  0  0  0  0  0  0  0999 V2000
   -0.7145    3.7125    0.0000 O   0  0  0  0  0  0  0  0  0  0  0  0
    0.0000    3.3000    0.0000 C   0  0  0  0  0  0  0  0  0  0  0  0
    0.7145    3.7125    0.0000 O   0  0  0  0  0  0  0  0  0  0  0  0
    0.0000    2.4750    0.0000 C   0  0  0  0  0  0  0  0  0  0  0  0
    0.7145    2.0625    0.0000 O   0  0  0  0  0  0  0  0  0  0  0  0
    0.7145    1.2375    0.0000 C   0  0  0  0  0  0  0  0  0  0  0  0
    1.4289    0.8250    0.0000 C   0  0  0  0  0  0  0  0  0  0  0  0
    2.1434    1.2375    0.0000 Cl  0  0  0  0  0  0  0  0  0  0  0  0
    1.4289   -0.0000    0.0000 C   0  0  0  0  0  0  0  0  0  0  0  0
    0.7145   -0.4125    0.0000 C   0  0  0  0  0  0  0  0  0  0  0  0
    0.7145   -1.2375    0.0000 Cl  0  0  0  0  0  0  0  0  0  0  0  0
    0.0000    0.0000    0.0000 C   0  0  0  0  0  0  0  0  0  0  0  0
   -0.7145   -0.4125    0.0000 Cl  0  0  0  0  0  0  0  0  0  0  0  0
    0.0000    0.8250    0.0000 N   0  0  0  0  0  0  0  0  0  0  0  0
  1  2  1  0  0  0  0
  2  3  2  0  0  0  0
  2  4  1  0  0  0  0
  4  5  1  0  0  0  0
  5  6  1  0  0  0  0
  6  7  2  0  0  0  0
  6 14  1  0  0  0  0
  7  8  1  0  0  0  0
  7  9  1  0  0  0  0
  9 10  2  0  0  0  0
 10 11  1  0  0  0  0
 10 12  1  0  0  0  0
 12 13  1  0  0  0  0
 12 14  2  0  0  0  0
M  END
$$$$
Dithiopyr
 OpenBabel03171423152D

 25 25  0  0  0  0  0  0  0  0999 V2000
    1.4289    3.3000    0.0000 C   0  0  0  0  0  0  0  0  0  0  0  0
    1.4289    2.4750    0.0000 S   0  0  0  0  0  0  0  0  0  0  0  0
    0.7145    2.0625    0.0000 C   0  0  0  0  0  0  0  0  0  0  0  0
    0.0000    2.4750    0.0000 O   0  0  0  0  0  0  0  0  0  0  0  0
    0.7145    1.2375    0.0000 C   0  0  0  0  0  0  0  0  0  0  0  0
    1.4289    0.8250    0.0000 C   0  0  0  0  0  0  0  0  0  0  0  0
    1.4289   -0.0000    0.0000 N   0  0  0  0  0  0  0  0  0  0  0  0
    0.7145   -0.4125    0.0000 C   0  0  0  0  0  0  0  0  0  0  0  0
    0.0000    0.0000    0.0000 C   0  0  0  0  0  0  0  0  0  0  0  0
   -0.7145   -0.4125    0.0000 C   0  0  0  0  0  0  0  0  0  0  0  0
   -1.4289    0.0000    0.0000 O   0  0  0  0  0  0  0  0  0  0  0  0
   -0.7145   -1.2375    0.0000 S   0  0  0  0  0  0  0  0  0  0  0  0
   -1.4289   -1.6500    0.0000 C   0  0  0  0  0  0  0  0  0  0  0  0
    0.0000    0.8250    0.0000 C   0  0  0  0  0  0  0  0  0  0  0  0
   -0.7145    1.2375    0.0000 C   0  0  0  0  0  0  0  0  0  0  0  0
   -0.7145    2.0625    0.0000 C   0  0  0  0  0  0  0  0  0  0  0  0
   -1.4289    2.4750    0.0000 C   0  0  0  0  0  0  0  0  0  0  0  0
   -0.3789    2.8162    0.0000 C   0  0  0  0  0  0  0  0  0  0  0  0
    0.7145   -1.2375    0.0000 C   0  0  0  0  0  0  0  0  0  0  0  0
    0.7145   -2.0625    0.0000 F   0  0  0  0  0  0  0  0  0  0  0  0
   -0.1105   -1.2375    0.0000 F   0  0  0  0  0  0  0  0  0  0  0  0
    1.5395   -1.2375    0.0000 F   0  0  0  0  0  0  0  0  0  0  0  0
    2.1434    1.2375    0.0000 C   0  0  0  0  0  0  0  0  0  0  0  0
    2.8579    0.8250    0.0000 F   0  0  0  0  0  0  0  0  0  0  0  0
    2.1434    2.0625    0.0000 F   0  0  0  0  0  0  0  0  0  0  0  0
  1  2  1  0  0  0  0
  2  3  1  0  0  0  0
  3  4  2  0  0  0  0
  3  5  1  0  0  0  0
  5  6  2  0  0  0  0
  5 14  1  0  0  0  0
  6  7  1  0  0  0  0
  6 23  1  0  0  0  0
  7  8  2  0  0  0  0
  8  9  1  0  0  0  0
  8 19  1  0  0  0  0
  9 10  1  0  0  0  0
  9 14  2  0  0  0  0
 10 11  2  0  0  0  0
 10 12  1  0  0  0  0
 12 13  1  0  0  0  0
 14 15  1  0  0  0  0
 15 16  1  0  0  0  0
 16 17  1  0  0  0  0
 16 18  1  0  0  0  0
 19 20  1  0  0  0  0
 19 21  1  0  0  0  0
 19 22  1  0  0  0  0
 23 24  1  0  0  0  0
 23 25  1  0  0  0  0
M  END
>  <type>
common

$$$$
SODIUM DECYL SULFATE SODIUM
 OpenBabel03171423152D

 17 14  0  0  0  0  0  0  0  0999 V2000
   -3.0960   -0.1375    0.0000 S   0  0  0  0  0  0  0  0  0  0  0  0
   -2.3816    0.2750    0.0000 O   0  0  0  0  0  0  0  0  0  0  0  0
   -3.8105   -0.5500    0.0000 O   0  5  0  0  0  0  0  0  0  0  0  0
   -2.6835   -0.8520    0.0000 O   0  0  0  0  0  0  0  0  0  0  0  0
   -3.5085    0.5770    0.0000 O   0  0  0  0  0  0  0  0  0  0  0  0
   -1.6671   -0.1375    0.0000 C   0  0  0  0  0  0  0  0  0  0  0  0
   -0.9526    0.2750    0.0000 C   0  0  0  0  0  0  0  0  0  0  0  0
   -0.2382   -0.1375    0.0000 C   0  0  0  0  0  0  0  0  0  0  0  0
    0.4763    0.2750    0.0000 C   0  0  0  0  0  0  0  0  0  0  0  0
    1.1908   -0.1375    0.0000 C   0  0  0  0  0  0  0  0  0  0  0  0
    1.9053    0.2750    0.0000 C   0  0  0  0  0  0  0  0  0  0  0  0
    2.6197   -0.1375    0.0000 C   0  0  0  0  0  0  0  0  0  0  0  0
    3.3342    0.2750    0.0000 C   0  0  0  0  0  0  0  0  0  0  0  0
    4.0487   -0.1375    0.0000 C   0  0  0  0  0  0  0  0  0  0  0  0
    4.7631    0.2750    0.0000 C   0  0  0  0  0  0  0  0  0  0  0  0
    7.0024    0.0000    0.0000 Na  0  3  0  0  0 15  0  0  0  0  0  0
    0.0000   -2.5020    0.0000 Na  0  3  0  0  0 15  0  0  0  0  0  0
  1  2  1  0  0  0  0
  1  3  1  0  0  0  0
  1  4  2  0  0  0  0
  1  5  2  0  0  0  0
  2  6  1  0  0  0  0
  6  7  1  0  0  0  0
  7  8  1  0  0  0  0
  8  9  1  0  0  0  0
  9 10  1  0  0  0  0
 10 11  1  0  0  0  0
 11 12  1  0  0  0  0
 12 13  1  0  0  0  0
 13 14  1  0  0  0  0
 14 15  1  0  0  0  0
M  CHG  3   3  -1  16   1  17   1
M  END
>  <type>
systematic

$$$$
Methiocarb
 OpenBabel03171423152D

 15 15  0  0  0  0  0  0  0  0999 V2000
   -0.7145    3.7125    0.0000 C   0  0  0  0  0  0  0  0  0  0  0  0
    0.0000    3.3000    0.0000 N   0  0  0  0  0  0  0  0  0  0  0  0
    0.0000    2.4750    0.0000 C   0  0  0  0  0  0  0  0  0  0  0  0
   -0.7145    2.0625    0.0000 O   0  0  0  0  0  0  0  0  0  0  0  0
    0.7145    2.0625    0.0000 O   0  0  0  0  0  0  0  0  0  0  0  0
    0.7145    1.2375    0.0000 C   0  0  0  0  0  0  0  0  0  0  0  0
    1.4289    0.8250    0.0000 C   0  0  0  0  0  0  0  0  0  0  0  0
    1.4289   -0.0000    0.0000 C   0  0  0  0  0  0  0  0  0  0  0  0
    2.1434   -0.4125    0.0000 C   0  0  0  0  0  0  0  0  0  0  0  0
    0.7145   -0.4125    0.0000 C   0  0  0  0  0  0  0  0  0  0  0  0
    0.7145   -1.2375    0.0000 S   0  0  0  0  0  0  0  0  0  0  0  0
    1.4289   -1.6500    0.0000 C   0  0  0  0  0  0  0  0  0  0  0  0
    0.0000    0.0000    0.0000 C   0  0  0  0  0  0  0  0  0  0  0  0
   -0.7145   -0.4125    0.0000 C   0  0  0  0  0  0  0  0  0  0  0  0
    0.0000    0.8250    0.0000 C   0  0  0  0  0  0  0  0  0  0  0  0
  1  2  1  0  0  0  0
  2  3  1  0  0  0  0
  3  4  2  0  0  0  0
  3  5  1  0  0  0  0
  5  6  1  0  0  0  0
  6  7  2  0  0  0  0
  6 15  1  0  0  0  0
  7  8  1  0  0  0  0
  8  9  1  0  0  0  0
  8 10  2  0  0  0  0
 10 11  1  0  0  0  0
 10 13  1  0  0  0  0
 11 12  1  0  0  0  0
 13 14  1  0  0  0  0
 13 15  2  0  0  0  0
M  END
$$$$
nerolidol
 OpenBabel03171423152D

 16 15  0  0  1  0  0  0  0  0999 V2000
    3.7125    2.1434    0.0000 C   0  0  0  0  0  0  0  0  0  0  0  0
    3.3000    1.4289    0.0000 C   0  0  0  0  0  0  0  0  0  0  0  0
    3.7125    0.7145    0.0000 C   0  0  0  0  0  0  0  0  0  0  0  0
    2.4750    1.4289    0.0000 C   0  0  0  0  0  0  0  0  0  0  0  0
    2.0625    0.7145    0.0000 C   0  0  0  0  0  0  0  0  0  0  0  0
    1.2375    0.7145    0.0000 C   0  0  0  0  0  0  0  0  0  0  0  0
    0.8250    0.0000    0.0000 C   0  0  0  0  0  0  0  0  0  0  0  0
    1.2375   -0.7145    0.0000 C   0  0  0  0  0  0  0  0  0  0  0  0
    0.0000    0.0000    0.0000 C   0  0  0  0  0  0  0  0  0  0  0  0
   -0.4125   -0.7145    0.0000 C   0  0  0  0  0  0  0  0  0  0  0  0
    0.0000   -1.4289    0.0000 C   0  0  0  0  0  0  0  0  0  0  0  0
   -0.4125   -2.1434    0.0000 C   0  0  2  0  0  0  0  0  0  0  0  0
   -1.1270   -1.7309    0.0000 C   0  0  0  0  0  0  0  0  0  0  0  0
    0.3020   -2.5559    0.0000 O   0  0  0  0  0  0  0  0  0  0  0  0
   -0.8250   -2.8579    0.0000 C   0  0  0  0  0  0  0  0  0  0  0  0
   -0.4125   -3.5724    0.0000 C   0  0  0  0  0  0  0  0  0  0  0  0
  1  2  1  0  0  0  0
  2  3  1  0  0  0  0
  2  4  2  0  0  0  0
  4  5  1  0  0  0  0
  5  6  1  0  0  0  0
  6  7  1  0  0  0  0
  7  8  1  0  0  0  0
  7  9  2  0  0  0  0
  9 10  1  0  0  0  0
 10 11  1  0  0  0  0
 12 11  1  6  0  0  0
 12 13  1  0  0  0  0
 12 14  1  0  0  0  0
 12 15  1  0  0  0  0
 15 16  2  0  0  0  0
M  END
$$$$
5-chloro-2-methyl-4-isothiazolin-3-one
 OpenBabel03171423152D

  8  8  0  0  0  0  0  0  0  0999 V2000
    0.5678    1.9393    0.0000 C   0  0  0  0  0  0  0  0  0  0  0  0
    0.5678    1.1143    0.0000 N   0  0  0  0  0  0  0  0  0  0  0  0
    1.2352    0.6294    0.0000 S   0  0  0  0  0  0  0  0  0  0  0  0
    0.9803   -0.1553    0.0000 C   0  0  0  0  0  0  0  0  0  0  0  0
    1.4652   -0.8227    0.0000 Cl  0  0  0  0  0  0  0  0  0  0  0  0
    0.1553   -0.1553    0.0000 C   0  0  0  0  0  0  0  0  0  0  0  0
   -0.0997    0.6294    0.0000 C   0  0  0  0  0  0  0  0  0  0  0  0
   -0.8843    0.8843    0.0000 O   0  0  0  0  0  0  0  0  0  0  0  0
  1  2  1  0  0  0  0
  2  3  1  0  0  0  0
  2  7  1  0  0  0  0
  3  4  1  0  0  0  0
  4  5  1  0  0  0  0
  4  6  2  0  0  0  0
  6  7  1  0  0  0  0
  7  8  2  0  0  0  0
M  END
$$$$
Fipronil
 OpenBabel03171423152D

 26 27  0  0  0  0  0  0  0  0999 V2000
    0.7145   -0.4125    0.0000 N   0  0  0  0  0  0  0  0  0  0  0  0
    0.7145   -1.2375    0.0000 C   0  0  0  0  0  0  0  0  0  0  0  0
    1.3819   -1.7224    0.0000 C   0  0  0  0  0  0  0  0  0  0  0  0
    1.1270   -2.5070    0.0000 C   0  0  0  0  0  0  0  0  0  0  0  0
    0.3020   -2.5070    0.0000 N   0  0  0  0  0  0  0  0  0  0  0  0
    0.0470   -1.7224    0.0000 N   0  0  0  0  0  0  0  0  0  0  0  0
   -0.7376   -1.4675    0.0000 C   0  0  0  0  0  0  0  0  0  0  0  0
   -1.3507   -2.0195    0.0000 C   0  0  0  0  0  0  0  0  0  0  0  0
   -1.1792   -2.8265    0.0000 Cl  0  0  0  0  0  0  0  0  0  0  0  0
   -2.1353   -1.7646    0.0000 C   0  0  0  0  0  0  0  0  0  0  0  0
   -2.3068   -0.9576    0.0000 C   0  0  0  0  0  0  0  0  0  0  0  0
   -1.6937   -0.4056    0.0000 C   0  0  0  0  0  0  0  0  0  0  0  0
   -0.9091   -0.6605    0.0000 C   0  0  0  0  0  0  0  0  0  0  0  0
   -0.2960   -0.1085    0.0000 Cl  0  0  0  0  0  0  0  0  0  0  0  0
   -3.0915   -0.7027    0.0000 C   0  0  0  0  0  0  0  0  0  0  0  0
   -3.8761   -0.4477    0.0000 F   0  0  0  0  0  0  0  0  0  0  0  0
   -3.3464   -1.4873    0.0000 F   0  0  0  0  0  0  0  0  0  0  0  0
   -2.8365    0.0820    0.0000 F   0  0  0  0  0  0  0  0  0  0  0  0
    1.6119   -3.1745    0.0000 C   0  0  0  0  0  0  0  0  0  0  0  0
    2.0968   -3.8419    0.0000 N   0  0  0  0  0  0  0  0  0  0  0  0
    2.1665   -1.4675    0.0000 S   0  0  3  0  0  0  0  0  0  0  0  0
    2.7796   -2.0195    0.0000 O   0  0  0  0  0  0  0  0  0  0  0  0
    2.3381   -0.6605    0.0000 C   0  0  0  0  0  0  0  0  0  0  0  0
    2.5096    0.1465    0.0000 F   0  0  0  0  0  0  0  0  0  0  0  0
    3.1450   -0.8320    0.0000 F   0  0  0  0  0  0  0  0  0  0  0  0
    1.5311   -0.4890    0.0000 F   0  0  0  0  0  0  0  0  0  0  0  0
  1  2  1  0  0  0  0
  2  3  2  0  0  0  0
  2  6  1  0  0  0  0
  3  4  1  0  0  0  0
  3 21  1  0  0  0  0
  4  5  2  0  0  0  0
  4 19  1  0  0  0  0
  5  6  1  0  0  0  0
  6  7  1  0  0  0  0
  7  8  2  0  0  0  0
  7 13  1  0  0  0  0
  8  9  1  0  0  0  0
  8 10  1  0  0  0  0
 10 11  2  0  0  0  0
 11 12  1  0  0  0  0
 11 15  1  0  0  0  0
 12 13  2  0  0  0  0
 13 14  1  0  0  0  0
 15 16  1  0  0  0  0
 15 17  1  0  0  0  0
 15 18  1  0  0  0  0
 19 20  3  0  0  0  0
 21 22  2  0  0  0  0
 21 23  1  0  0  0  0
 23 24  1  0  0  0  0
 23 25  1  0  0  0  0
 23 26  1  0  0  0  0
M  END
$$$$
propiconazole
 OpenBabel03171423152D

 22 24  0  0  0  0  0  0  0  0999 V2000
    2.2308   -4.4153    0.0000 C   0  0  0  0  0  0  0  0  0  0  0  0
    1.7459   -3.7479    0.0000 C   0  0  0  0  0  0  0  0  0  0  0  0
    2.0815   -2.9942    0.0000 C   0  0  0  0  0  0  0  0  0  0  0  0
    1.5966   -2.3268    0.0000 C   0  0  3  0  0  0  0  0  0  0  0  0
    0.7716   -2.3268    0.0000 C   0  0  0  0  0  0  0  0  0  0  0  0
    0.5166   -1.5422    0.0000 O   0  0  0  0  0  0  0  0  0  0  0  0
    1.1841   -1.0572    0.0000 C   0  0  3  0  0  0  0  0  0  0  0  0
    0.6320   -0.4441    0.0000 C   0  0  0  0  0  0  0  0  0  0  0  0
   -0.1749   -0.6157    0.0000 N   0  0  0  0  0  0  0  0  0  0  0  0
   -0.5105   -1.3694    0.0000 C   0  0  0  0  0  0  0  0  0  0  0  0
   -1.3310   -1.2831    0.0000 N   0  0  0  0  0  0  0  0  0  0  0  0
   -1.5025   -0.4761    0.0000 C   0  0  0  0  0  0  0  0  0  0  0  0
   -0.7880   -0.0636    0.0000 N   0  0  0  0  0  0  0  0  0  0  0  0
    1.8515   -1.5422    0.0000 O   0  0  0  0  0  0  0  0  0  0  0  0
    1.7361   -0.4441    0.0000 C   0  0  0  0  0  0  0  0  0  0  0  0
    1.4812    0.3405    0.0000 C   0  0  0  0  0  0  0  0  0  0  0  0
    0.6742    0.5120    0.0000 Cl  0  0  0  0  0  0  0  0  0  0  0  0
    2.0332    0.9536    0.0000 C   0  0  0  0  0  0  0  0  0  0  0  0
    2.8402    0.7820    0.0000 C   0  0  0  0  0  0  0  0  0  0  0  0
    3.3922    1.3951    0.0000 Cl  0  0  0  0  0  0  0  0  0  0  0  0
    3.0951   -0.0026    0.0000 C   0  0  0  0  0  0  0  0  0  0  0  0
    2.5431   -0.6157    0.0000 C   0  0  0  0  0  0  0  0  0  0  0  0
  1  2  1  0  0  0  0
  2  3  1  0  0  0  0
  3  4  1  0  0  0  0
  4  5  1  0  0  0  0
  4 14  1  0  0  0  0
  5  6  1  0  0  0  0
  6  7  1  0  0  0  0
  7  8  1  0  0  0  0
  7 14  1  0  0  0  0
  7 15  1  0  0  0  0
  8  9  1  0  0  0  0
  9 10  1  0  0  0  0
  9 13  1  0  0  0  0
 10 11  2  0  0  0  0
 11 12  1  0  0  0  0
 12 13  2  0  0  0  0
 15 16  2  0  0  0  0
 15 22  1  0  0  0  0
 16 17  1  0  0  0  0
 16 18  1  0  0  0  0
 18 19  2  0  0  0  0
 19 20  1  0  0  0  0
 19 21  1  0  0  0  0
 21 22  2  0  0  0  0
M  END
$$$$
Sulfosulfuron
 OpenBabel03171423152D

 31 33  0  0  0  0  0  0  0  0999 V2000
   -1.4087    0.0165    0.0000 C   0  0  0  0  0  0  0  0  0  0  0  0
   -0.9962   -0.6979    0.0000 C   0  0  0  0  0  0  0  0  0  0  0  0
   -0.1712   -0.6979    0.0000 S   0  0  0  0  0  0  0  0  0  0  0  0
   -0.1712   -1.5229    0.0000 O   0  0  0  0  0  0  0  0  0  0  0  0
   -0.1712    0.1271    0.0000 O   0  0  0  0  0  0  0  0  0  0  0  0
    0.6538   -0.6979    0.0000 C   0  0  0  0  0  0  0  0  0  0  0  0
    1.1387   -0.0305    0.0000 N   0  0  0  0  0  0  0  0  0  0  0  0
    1.9233   -0.2854    0.0000 C   0  0  0  0  0  0  0  0  0  0  0  0
    2.6378    0.1271    0.0000 C   0  0  0  0  0  0  0  0  0  0  0  0
    3.3523   -0.2854    0.0000 C   0  0  0  0  0  0  0  0  0  0  0  0
    3.3523   -1.1104    0.0000 C   0  0  0  0  0  0  0  0  0  0  0  0
    2.6378   -1.5229    0.0000 C   0  0  0  0  0  0  0  0  0  0  0  0
    1.9233   -1.1104    0.0000 N   0  0  0  0  0  0  0  0  0  0  0  0
    1.1387   -1.3654    0.0000 C   0  0  3  0  0  0  0  0  0  0  0  0
    0.8838   -2.1500    0.0000 S   0  0  0  0  0  0  0  0  0  0  0  0
    0.0992   -1.8951    0.0000 O   0  0  0  0  0  0  0  0  0  0  0  0
    1.6684   -2.4049    0.0000 O   0  0  0  0  0  0  0  0  0  0  0  0
    0.6288   -2.9346    0.0000 N   0  0  0  0  0  0  0  0  0  0  0  0
   -0.1781   -3.1062    0.0000 C   0  0  0  0  0  0  0  0  0  0  0  0
   -0.7302   -2.4931    0.0000 O   0  0  0  0  0  0  0  0  0  0  0  0
   -0.4331   -3.8908    0.0000 N   0  0  0  0  0  0  0  0  0  0  0  0
   -1.2400   -4.0623    0.0000 C   0  0  0  0  0  0  0  0  0  0  0  0
   -1.4950   -4.8469    0.0000 N   0  0  0  0  0  0  0  0  0  0  0  0
   -2.3020   -5.0184    0.0000 C   0  0  0  0  0  0  0  0  0  0  0  0
   -2.5569   -5.8031    0.0000 O   0  0  0  0  0  0  0  0  0  0  0  0
   -2.0049   -6.4162    0.0000 C   0  0  0  0  0  0  0  0  0  0  0  0
   -2.8540   -4.4054    0.0000 C   0  0  0  0  0  0  0  0  0  0  0  0
   -2.5990   -3.6207    0.0000 C   0  0  0  0  0  0  0  0  0  0  0  0
   -3.1511   -3.0076    0.0000 O   0  0  0  0  0  0  0  0  0  0  0  0
   -2.8961   -2.2230    0.0000 C   0  0  0  0  0  0  0  0  0  0  0  0
   -1.7921   -3.4492    0.0000 N   0  0  0  0  0  0  0  0  0  0  0  0
  1  2  1  0  0  0  0
  2  3  1  0  0  0  0
  3  4  2  0  0  0  0
  3  5  2  0  0  0  0
  3  6  1  0  0  0  0
  6  7  2  0  0  0  0
  6 14  1  0  0  0  0
  7  8  1  0  0  0  0
  8  9  2  0  0  0  0
  8 13  1  0  0  0  0
  9 10  1  0  0  0  0
 10 11  2  0  0  0  0
 11 12  1  0  0  0  0
 12 13  1  0  0  0  0
 13 14  1  0  0  0  0
 14 15  1  0  0  0  0
 15 16  2  0  0  0  0
 15 17  2  0  0  0  0
 15 18  1  0  0  0  0
 18 19  1  0  0  0  0
 19 20  2  0  0  0  0
 19 21  1  0  0  0  0
 21 22  1  0  0  0  0
 22 23  2  0  0  0  0
 22 31  1  0  0  0  0
 23 24  1  0  0  0  0
 24 25  1  0  0  0  0
 24 27  2  0  0  0  0
 25 26  1  0  0  0  0
 27 28  1  0  0  0  0
 28 29  1  0  0  0  0
 28 31  2  0  0  0  0
 29 30  1  0  0  0  0
M  END
>  <type>
common

$$$$
Pyrethrin
 OpenBabel03171423152D

 22 23  0  0  0  0  0  0  0  0999 V2000
    3.4456   -3.5409    0.0000 C   0  0  0  0  0  0  0  0  0  0  0  0
    2.7311   -3.1284    0.0000 C   0  0  0  0  0  0  0  0  0  0  0  0
    2.7311   -2.3034    0.0000 C   0  0  0  0  0  0  0  0  0  0  0  0
    2.0166   -3.5409    0.0000 C   0  0  0  0  0  0  0  0  0  0  0  0
    1.3022   -3.1284    0.0000 C   0  0  3  0  0  0  0  0  0  0  0  0
    0.4772   -3.1284    0.0000 C   0  0  3  0  0  0  0  0  0  0  0  0
   -0.2373   -3.5409    0.0000 C   0  0  0  0  0  0  0  0  0  0  0  0
   -0.2373   -4.3659    0.0000 O   0  0  0  0  0  0  0  0  0  0  0  0
   -0.9518   -3.1284    0.0000 O   0  0  0  0  0  0  0  0  0  0  0  0
   -1.6663   -3.5409    0.0000 C   0  0  3  0  0  0  0  0  0  0  0  0
   -1.7525   -4.3614    0.0000 C   0  0  0  0  0  0  0  0  0  0  0  0
   -2.5595   -4.5329    0.0000 C   0  0  0  0  0  0  0  0  0  0  0  0
   -2.8950   -5.2866    0.0000 O   0  0  0  0  0  0  0  0  0  0  0  0
   -2.9720   -3.8185    0.0000 C   0  0  0  0  0  0  0  0  0  0  0  0
   -3.7924   -3.7322    0.0000 C   0  0  0  0  0  0  0  0  0  0  0  0
   -4.1280   -2.9786    0.0000 C   0  0  0  0  0  0  0  0  0  0  0  0
   -4.9485   -2.8923    0.0000 C   0  0  0  0  0  0  0  0  0  0  0  0
   -2.4199   -3.2054    0.0000 C   0  0  0  0  0  0  0  0  0  0  0  0
   -2.5915   -2.3984    0.0000 C   0  0  0  0  0  0  0  0  0  0  0  0
    0.8897   -2.4140    0.0000 C   0  0  0  0  0  0  0  0  0  0  0  0
    0.4165   -1.7382    0.0000 C   0  0  0  0  0  0  0  0  0  0  0  0
    1.3629   -1.7382    0.0000 C   0  0  0  0  0  0  0  0  0  0  0  0
  1  2  1  0  0  0  0
  2  3  1  0  0  0  0
  2  4  2  0  0  0  0
  4  5  1  0  0  0  0
  5  6  1  0  0  0  0
  5 20  1  0  0  0  0
  6  7  1  0  0  0  0
  6 20  1  0  0  0  0
  7  8  2  0  0  0  0
  7  9  1  0  0  0  0
  9 10  1  0  0  0  0
 10 11  1  0  0  0  0
 10 18  1  0  0  0  0
 11 12  1  0  0  0  0
 12 13  2  0  0  0  0
 12 14  1  0  0  0  0
 14 15  1  0  0  0  0
 14 18  2  0  0  0  0
 15 16  1  0  0  0  0
 16 17  2  0  0  0  0
 18 19  1  0  0  0  0
 20 21  1  0  0  0  0
 20 22  1  0  0  0  0
M  END
$$$$
1,3-bis(hydroxymethyl)-5,5-dimethylimidazolidinedione
 OpenBabel03171423152D

 13 13  0  0  0  0  0  0  0  0999 V2000
    1.1198    1.7274    0.0000 C   0  0  0  0  0  0  0  0  0  0  0  0
    0.5678    1.1143    0.0000 C   0  0  0  0  0  0  0  0  0  0  0  0
    0.0157    1.7274    0.0000 C   0  0  0  0  0  0  0  0  0  0  0  0
    1.2352    0.6294    0.0000 N   0  0  0  0  0  0  0  0  0  0  0  0
    2.0198    0.8843    0.0000 C   0  0  0  0  0  0  0  0  0  0  0  0
    2.1913    1.6913    0.0000 O   0  0  0  0  0  0  0  0  0  0  0  0
    0.9803   -0.1553    0.0000 C   0  0  0  0  0  0  0  0  0  0  0  0
    1.4652   -0.8227    0.0000 O   0  0  0  0  0  0  0  0  0  0  0  0
    0.1553   -0.1553    0.0000 N   0  0  0  0  0  0  0  0  0  0  0  0
   -0.3297   -0.8227    0.0000 C   0  0  0  0  0  0  0  0  0  0  0  0
    0.0059   -1.5764    0.0000 O   0  0  0  0  0  0  0  0  0  0  0  0
   -0.0997    0.6294    0.0000 C   0  0  0  0  0  0  0  0  0  0  0  0
   -0.8843    0.8843    0.0000 O   0  0  0  0  0  0  0  0  0  0  0  0
  1  2  1  0  0  0  0
  2  3  1  0  0  0  0
  2  4  1  0  0  0  0
  2 12  1  0  0  0  0
  4  5  1  0  0  0  0
  4  7  1  0  0  0  0
  5  6  1  0  0  0  0
  7  8  2  0  0  0  0
  7  9  1  0  0  0  0
  9 10  1  0  0  0  0
  9 12  1  0  0  0  0
 10 11  1  0  0  0  0
 12 13  2  0  0  0  0
M  END
$$$$
maltodextrin
 OpenBabel03171423152D

 34 36  0  0  1  0  0  0  0  0999 V2000
   -1.4289   -2.4750    0.0000 O   0  0  0  0  0  0  0  0  0  0  0  0
   -2.1434   -2.8875    0.0000 C   0  0  0  0  0  0  0  0  0  0  0  0
   -2.1434   -3.7125    0.0000 C   0  0  1  0  0  0  0  0  0  0  0  0
   -2.8579   -4.1250    0.0000 O   0  0  0  0  0  0  0  0  0  0  0  0
   -2.8579   -4.9500    0.0000 C   0  0  3  0  0  0  0  0  0  0  0  0
   -3.5724   -5.3625    0.0000 O   0  0  0  0  0  0  0  0  0  0  0  0
   -4.2868   -4.9500    0.0000 C   0  0  1  0  0  0  0  0  0  0  0  0
   -4.2868   -4.1250    0.0000 C   0  0  2  0  0  0  0  0  0  0  0  0
   -3.5724   -3.7125    0.0000 O   0  0  0  0  0  0  0  0  0  0  0  0
   -5.0013   -3.7125    0.0000 C   0  0  1  0  0  0  0  0  0  0  0  0
   -5.0013   -2.8875    0.0000 O   0  0  0  0  0  0  0  0  0  0  0  0
   -5.7158   -4.1250    0.0000 C   0  0  3  0  0  0  0  0  0  0  0  0
   -6.4302   -3.7125    0.0000 O   0  0  0  0  0  0  0  0  0  0  0  0
   -7.1447   -4.1250    0.0000 C   0  0  1  0  0  0  0  0  0  0  0  0
   -7.1447   -4.9500    0.0000 C   0  0  2  0  0  0  0  0  0  0  0  0
   -6.4302   -5.3625    0.0000 O   0  0  0  0  0  0  0  0  0  0  0  0
   -7.8592   -5.3625    0.0000 C   0  0  1  0  0  0  0  0  0  0  0  0
   -7.8592   -6.1875    0.0000 O   0  0  0  0  0  0  0  0  0  0  0  0
   -8.5737   -4.9500    0.0000 C   0  0  1  0  0  0  0  0  0  0  0  0
   -9.2881   -5.3625    0.0000 O   0  0  0  0  0  0  0  0  0  0  0  0
   -8.5737   -4.1250    0.0000 O   0  0  0  0  0  0  0  0  0  0  0  0
   -7.8592   -3.7125    0.0000 C   0  0  2  0  0  0  0  0  0  0  0  0
   -7.8592   -2.8875    0.0000 C   0  0  0  0  0  0  0  0  0  0  0  0
   -7.1447   -2.4750    0.0000 O   0  0  0  0  0  0  0  0  0  0  0  0
   -5.7158   -4.9500    0.0000 O   0  0  0  0  0  0  0  0  0  0  0  0
   -5.0013   -5.3625    0.0000 C   0  0  2  0  0  0  0  0  0  0  0  0
   -5.0013   -6.1875    0.0000 C   0  0  0  0  0  0  0  0  0  0  0  0
   -4.2868   -6.6000    0.0000 O   0  0  0  0  0  0  0  0  0  0  0  0
   -2.1434   -5.3625    0.0000 C   0  0  2  0  0  0  0  0  0  0  0  0
   -2.1434   -6.1875    0.0000 O   0  0  0  0  0  0  0  0  0  0  0  0
   -1.4289   -4.9500    0.0000 C   0  0  1  0  0  0  0  0  0  0  0  0
   -0.7145   -5.3625    0.0000 O   0  0  0  0  0  0  0  0  0  0  0  0
   -1.4289   -4.1250    0.0000 C   0  0  2  0  0  0  0  0  0  0  0  0
   -0.7145   -3.7125    0.0000 O   0  0  0  0  0  0  0  0  0  0  0  0
  1  2  1  0  0  0  0
  3  2  1  6  0  0  0
  3  4  1  0  0  0  0
  3 33  1  0  0  0  0
  4  5  1  0  0  0  0
  5  6  1  0  0  0  0
  5 29  1  0  0  0  0
  7  6  1  6  0  0  0
  7  8  1  0  0  0  0
  7 26  1  0  0  0  0
  8  9  1  1  0  0  0
  8 10  1  0  0  0  0
 10 11  1  6  0  0  0
 10 12  1  0  0  0  0
 12 13  1  0  0  0  0
 12 25  1  0  0  0  0
 14 13  1  1  0  0  0
 14 15  1  0  0  0  0
 14 22  1  0  0  0  0
 15 16  1  6  0  0  0
 15 17  1  0  0  0  0
 17 18  1  1  0  0  0
 17 19  1  0  0  0  0
 19 20  1  1  0  0  0
 19 21  1  0  0  0  0
 21 22  1  0  0  0  0
 22 23  1  6  0  0  0
 23 24  1  0  0  0  0
 25 26  1  0  0  0  0
 26 27  1  1  0  0  0
 27 28  1  0  0  0  0
 29 30  1  1  0  0  0
 29 31  1  0  0  0  0
 31 32  1  6  0  0  0
 31 33  1  0  0  0  0
 33 34  1  1  0  0  0
M  END
$$$$
Methidathion
 OpenBabel03171423152D

 16 16  0  0  0  0  0  0  0  0999 V2000
   -0.1467    2.3518    0.0000 C   0  0  0  0  0  0  0  0  0  0  0  0
    0.5678    1.9393    0.0000 O   0  0  0  0  0  0  0  0  0  0  0  0
    0.5678    1.1143    0.0000 C   0  0  0  0  0  0  0  0  0  0  0  0
    1.2352    0.6294    0.0000 N   0  0  0  0  0  0  0  0  0  0  0  0
    0.9803   -0.1553    0.0000 N   0  0  0  0  0  0  0  0  0  0  0  0
    1.4652   -0.8227    0.0000 C   0  0  0  0  0  0  0  0  0  0  0  0
    2.2857   -0.7365    0.0000 S   0  0  0  0  0  0  0  0  0  0  0  0
    2.7706   -1.4039    0.0000 P   0  0  0  0  0  0  0  0  0  0  0  0
    2.1031   -1.8888    0.0000 S   0  0  0  0  0  0  0  0  0  0  0  0
    3.2555   -2.0713    0.0000 O   0  0  0  0  0  0  0  0  0  0  0  0
    4.0760   -1.9851    0.0000 C   0  0  0  0  0  0  0  0  0  0  0  0
    3.4380   -0.9190    0.0000 O   0  0  0  0  0  0  0  0  0  0  0  0
    4.1917   -1.2545    0.0000 C   0  0  0  0  0  0  0  0  0  0  0  0
    0.1553   -0.1553    0.0000 C   0  0  0  0  0  0  0  0  0  0  0  0
   -0.3297   -0.8227    0.0000 O   0  0  0  0  0  0  0  0  0  0  0  0
   -0.0997    0.6294    0.0000 S   0  0  0  0  0  0  0  0  0  0  0  0
  1  2  1  0  0  0  0
  2  3  1  0  0  0  0
  3  4  2  0  0  0  0
  3 16  1  0  0  0  0
  4  5  1  0  0  0  0
  5  6  1  0  0  0  0
  5 14  1  0  0  0  0
  6  7  1  0  0  0  0
  7  8  1  0  0  0  0
  8  9  2  0  0  0  0
  8 10  1  0  0  0  0
  8 12  1  0  0  0  0
 10 11  1  0  0  0  0
 12 13  1  0  0  0  0
 14 15  2  0  0  0  0
 14 16  1  0  0  0  0
M  END
$$$$
buprofezin
 OpenBabel03171423152D

 21 22  0  0  0  0  0  0  0  0999 V2000
    0.0000    0.0000    0.0000 C   0  0  0  0  0  0  0  0  0  0  0  0
    0.7145   -0.4125    0.0000 C   0  0  0  0  0  0  0  0  0  0  0  0
    1.4289   -0.0000    0.0000 C   0  0  0  0  0  0  0  0  0  0  0  0
    0.7145   -1.2375    0.0000 N   0  0  0  0  0  0  0  0  0  0  0  0
    1.4289   -1.6500    0.0000 C   0  0  0  0  0  0  0  0  0  0  0  0
    1.4289   -2.4750    0.0000 S   0  0  0  0  0  0  0  0  0  0  0  0
    0.7145   -2.8875    0.0000 C   0  0  0  0  0  0  0  0  0  0  0  0
    0.0000   -2.4750    0.0000 N   0  0  0  0  0  0  0  0  0  0  0  0
    0.0000   -1.6500    0.0000 C   0  0  0  0  0  0  0  0  0  0  0  0
   -0.7145   -1.2375    0.0000 O   0  0  0  0  0  0  0  0  0  0  0  0
   -0.7145   -2.8875    0.0000 C   0  0  0  0  0  0  0  0  0  0  0  0
   -0.7145   -3.7125    0.0000 C   0  0  0  0  0  0  0  0  0  0  0  0
   -1.4289   -4.1250    0.0000 C   0  0  0  0  0  0  0  0  0  0  0  0
   -2.1434   -3.7125    0.0000 C   0  0  0  0  0  0  0  0  0  0  0  0
   -2.1434   -2.8875    0.0000 C   0  0  0  0  0  0  0  0  0  0  0  0
   -1.4289   -2.4750    0.0000 C   0  0  0  0  0  0  0  0  0  0  0  0
    2.1434   -1.2375    0.0000 N   0  0  0  0  0  0  0  0  0  0  0  0
    2.8579   -1.6500    0.0000 C   0  0  0  0  0  0  0  0  0  0  0  0
    3.5724   -2.0625    0.0000 C   0  0  0  0  0  0  0  0  0  0  0  0
    2.4454   -2.3645    0.0000 C   0  0  0  0  0  0  0  0  0  0  0  0
    3.2704   -0.9355    0.0000 C   0  0  0  0  0  0  0  0  0  0  0  0
  1  2  1  0  0  0  0
  2  3  1  0  0  0  0
  2  4  1  0  0  0  0
  4  5  1  0  0  0  0
  4  9  1  0  0  0  0
  5  6  1  0  0  0  0
  5 17  2  3  0  0  0
  6  7  1  0  0  0  0
  7  8  1  0  0  0  0
  8  9  1  0  0  0  0
  8 11  1  0  0  0  0
  9 10  2  0  0  0  0
 11 12  2  0  0  0  0
 11 16  1  0  0  0  0
 12 13  1  0  0  0  0
 13 14  2  0  0  0  0
 14 15  1  0  0  0  0
 15 16  2  0  0  0  0
 17 18  1  0  0  0  0
 18 19  1  0  0  0  0
 18 20  1  0  0  0  0
 18 21  1  0  0  0  0
M  END
$$$$
triflumizole
 OpenBabel03171423152D

 23 24  0  0  0  0  0  0  0  0999 V2000
   -2.8579   -0.0000    0.0000 C   0  0  0  0  0  0  0  0  0  0  0  0
   -2.1434    0.4125    0.0000 C   0  0  0  0  0  0  0  0  0  0  0  0
   -1.4289   -0.0000    0.0000 C   0  0  0  0  0  0  0  0  0  0  0  0
   -0.7145    0.4125    0.0000 O   0  0  0  0  0  0  0  0  0  0  0  0
    0.0000   -0.0000    0.0000 C   0  0  0  0  0  0  0  0  0  0  0  0
    0.7145    0.4125    0.0000 C   0  0  0  0  0  0  0  0  0  0  0  0
    0.7145    1.2375    0.0000 N   0  0  0  0  0  0  0  0  0  0  0  0
    0.0000    1.6500    0.0000 C   0  0  0  0  0  0  0  0  0  0  0  0
   -0.7145    1.2375    0.0000 C   0  0  0  0  0  0  0  0  0  0  0  0
   -1.4289    1.6500    0.0000 C   0  0  0  0  0  0  0  0  0  0  0  0
   -1.4289    2.4750    0.0000 C   0  0  0  0  0  0  0  0  0  0  0  0
   -2.1434    2.8875    0.0000 Cl  0  0  0  0  0  0  0  0  0  0  0  0
   -0.7145    2.8875    0.0000 C   0  0  0  0  0  0  0  0  0  0  0  0
    0.0000    2.4750    0.0000 C   0  0  0  0  0  0  0  0  0  0  0  0
    0.7145    2.8875    0.0000 C   0  0  0  0  0  0  0  0  0  0  0  0
    1.4289    3.3000    0.0000 F   0  0  0  0  0  0  0  0  0  0  0  0
    1.1270    2.1730    0.0000 F   0  0  0  0  0  0  0  0  0  0  0  0
    0.3020    3.6020    0.0000 F   0  0  0  0  0  0  0  0  0  0  0  0
    1.4289   -0.0000    0.0000 N   0  0  0  0  0  0  0  0  0  0  0  0
    2.1826    0.3356    0.0000 C   0  0  0  0  0  0  0  0  0  0  0  0
    2.7346   -0.2775    0.0000 C   0  0  0  0  0  0  0  0  0  0  0  0
    2.3221   -0.9920    0.0000 N   0  0  0  0  0  0  0  0  0  0  0  0
    1.5152   -0.8205    0.0000 C   0  0  0  0  0  0  0  0  0  0  0  0
  1  2  1  0  0  0  0
  2  3  1  0  0  0  0
  3  4  1  0  0  0  0
  4  5  1  0  0  0  0
  5  6  1  0  0  0  0
  6  7  2  0  0  0  0
  6 19  1  0  0  0  0
  7  8  1  0  0  0  0
  8  9  2  0  0  0  0
  8 14  1  0  0  0  0
  9 10  1  0  0  0  0
 10 11  2  0  0  0  0
 11 12  1  0  0  0  0
 11 13  1  0  0  0  0
 13 14  2  0  0  0  0
 14 15  1  0  0  0  0
 15 16  1  0  0  0  0
 15 17  1  0  0  0  0
 15 18  1  0  0  0  0
 19 20  1  0  0  0  0
 19 23  1  0  0  0  0
 20 21  2  0  0  0  0
 21 22  1  0  0  0  0
 22 23  2  0  0  0  0
M  END
>  <type>
common

$$$$
etofenprox
 OpenBabel03171423152D

 28 30  0  0  0  0  0  0  0  0999 V2000
    4.2868   -3.3000    0.0000 C   0  0  0  0  0  0  0  0  0  0  0  0
    4.2868   -4.1250    0.0000 C   0  0  0  0  0  0  0  0  0  0  0  0
    5.0013   -4.5375    0.0000 O   0  0  0  0  0  0  0  0  0  0  0  0
    5.0013   -5.3625    0.0000 C   0  0  0  0  0  0  0  0  0  0  0  0
    5.7158   -5.7750    0.0000 C   0  0  0  0  0  0  0  0  0  0  0  0
    5.7158   -6.6000    0.0000 C   0  0  0  0  0  0  0  0  0  0  0  0
    5.0013   -7.0125    0.0000 C   0  0  0  0  0  0  0  0  0  0  0  0
    4.2868   -6.6000    0.0000 C   0  0  0  0  0  0  0  0  0  0  0  0
    4.2868   -5.7750    0.0000 C   0  0  0  0  0  0  0  0  0  0  0  0
    5.0013   -7.8375    0.0000 C   0  0  0  0  0  0  0  0  0  0  0  0
    4.1763   -7.8375    0.0000 C   0  0  0  0  0  0  0  0  0  0  0  0
    5.8263   -7.8375    0.0000 C   0  0  0  0  0  0  0  0  0  0  0  0
    5.0013   -8.6625    0.0000 C   0  0  0  0  0  0  0  0  0  0  0  0
    4.2868   -9.0750    0.0000 O   0  0  0  0  0  0  0  0  0  0  0  0
    4.2868   -9.9000    0.0000 C   0  0  0  0  0  0  0  0  0  0  0  0
    3.5724  -10.3125    0.0000 C   0  0  0  0  0  0  0  0  0  0  0  0
    3.5724  -11.1375    0.0000 C   0  0  0  0  0  0  0  0  0  0  0  0
    2.8579  -11.5500    0.0000 C   0  0  0  0  0  0  0  0  0  0  0  0
    2.8579  -12.3750    0.0000 O   0  0  0  0  0  0  0  0  0  0  0  0
    2.1434  -12.7875    0.0000 C   0  0  0  0  0  0  0  0  0  0  0  0
    2.1434  -13.6125    0.0000 C   0  0  0  0  0  0  0  0  0  0  0  0
    1.4289  -14.0250    0.0000 C   0  0  0  0  0  0  0  0  0  0  0  0
    0.7145  -13.6125    0.0000 C   0  0  0  0  0  0  0  0  0  0  0  0
    0.7145  -12.7875    0.0000 C   0  0  0  0  0  0  0  0  0  0  0  0
    1.4289  -12.3750    0.0000 C   0  0  0  0  0  0  0  0  0  0  0  0
    2.1434  -11.1375    0.0000 C   0  0  0  0  0  0  0  0  0  0  0  0
    2.1434  -10.3125    0.0000 C   0  0  0  0  0  0  0  0  0  0  0  0
    2.8579   -9.9000    0.0000 C   0  0  0  0  0  0  0  0  0  0  0  0
  1  2  1  0  0  0  0
  2  3  1  0  0  0  0
  3  4  1  0  0  0  0
  4  5  2  0  0  0  0
  4  9  1  0  0  0  0
  5  6  1  0  0  0  0
  6  7  2  0  0  0  0
  7  8  1  0  0  0  0
  7 10  1  0  0  0  0
  8  9  2  0  0  0  0
 10 11  1  0  0  0  0
 10 12  1  0  0  0  0
 10 13  1  0  0  0  0
 13 14  1  0  0  0  0
 14 15  1  0  0  0  0
 15 16  1  0  0  0  0
 16 17  2  0  0  0  0
 16 28  1  0  0  0  0
 17 18  1  0  0  0  0
 18 19  1  0  0  0  0
 18 26  2  0  0  0  0
 19 20  1  0  0  0  0
 20 21  2  0  0  0  0
 20 25  1  0  0  0  0
 21 22  1  0  0  0  0
 22 23  2  0  0  0  0
 23 24  1  0  0  0  0
 24 25  2  0  0  0  0
 26 27  1  0  0  0  0
 27 28  2  0  0  0  0
M  END
$$$$
propane
 OpenBabel03171423152D

  3  2  0  0  0  0  0  0  0  0999 V2000
    1.2375   -0.7145    0.0000 C   0  0  0  0  0  0  0  0  0  0  0  0
    1.9520   -1.1270    0.0000 C   0  0  0  0  0  0  0  0  0  0  0  0
    2.6664   -0.7145    0.0000 C   0  0  0  0  0  0  0  0  0  0  0  0
  1  2  1  0  0  0  0
  2  3  1  0  0  0  0
M  END
$$$$
Methyl Parathion
 OpenBabel03171423152D

 16 16  0  0  0  0  0  0  0  0999 V2000
   -0.7145    3.7125    0.0000 C   0  0  0  0  0  0  0  0  0  0  0  0
   -0.7145    2.8875    0.0000 O   0  0  0  0  0  0  0  0  0  0  0  0
    0.0000    2.4750    0.0000 P   0  0  0  0  0  0  0  0  0  0  0  0
   -0.4125    1.7605    0.0000 S   0  0  0  0  0  0  0  0  0  0  0  0
    0.4125    3.1895    0.0000 O   0  0  0  0  0  0  0  0  0  0  0  0
    1.2375    3.1895    0.0000 C   0  0  0  0  0  0  0  0  0  0  0  0
    0.7145    2.0625    0.0000 O   0  0  0  0  0  0  0  0  0  0  0  0
    0.7145    1.2375    0.0000 C   0  0  0  0  0  0  0  0  0  0  0  0
    1.4289    0.8250    0.0000 C   0  0  0  0  0  0  0  0  0  0  0  0
    1.4289   -0.0000    0.0000 C   0  0  0  0  0  0  0  0  0  0  0  0
    0.7145   -0.4125    0.0000 C   0  0  0  0  0  0  0  0  0  0  0  0
    0.0000    0.0000    0.0000 C   0  0  0  0  0  0  0  0  0  0  0  0
    0.0000    0.8250    0.0000 C   0  0  0  0  0  0  0  0  0  0  0  0
    0.7145   -1.2375    0.0000 N   0  3  0  0  0  0  0  0  0  0  0  0
    1.4289   -1.6500    0.0000 O   0  5  0  0  0  0  0  0  0  0  0  0
   -0.0000   -1.6500    0.0000 O   0  0  0  0  0  0  0  0  0  0  0  0
  1  2  1  0  0  0  0
  2  3  1  0  0  0  0
  3  4  2  0  0  0  0
  3  5  1  0  0  0  0
  3  7  1  0  0  0  0
  5  6  1  0  0  0  0
  7  8  1  0  0  0  0
  8  9  2  0  0  0  0
  8 13  1  0  0  0  0
  9 10  1  0  0  0  0
 10 11  2  0  0  0  0
 11 12  1  0  0  0  0
 11 14  1  0  0  0  0
 12 13  2  0  0  0  0
 14 15  1  0  0  0  0
 14 16  2  0  0  0  0
M  CHG  2  14   1  15  -1
M  END
$$$$
acetic acid
 OpenBabel03171423152D

  4  3  0  0  0  0  0  0  0  0999 V2000
    1.2375    0.7145    0.0000 C   0  0  0  0  0  0  0  0  0  0  0  0
    0.8250    0.0000    0.0000 C   0  0  0  0  0  0  0  0  0  0  0  0
    1.2375   -0.7145    0.0000 O   0  0  0  0  0  0  0  0  0  0  0  0
    0.0000    0.0000    0.0000 O   0  0  0  0  0  0  0  0  0  0  0  0
  1  2  1  0  0  0  0
  2  3  1  0  0  0  0
  2  4  2  0  0  0  0
M  END
$$$$
Dicopper
 OpenBabel03171423152D

  2  0  0  0  0  0  0  0  0  0999 V2000
    0.0000    0.0000    0.0000 Cu  0  0  0  0  0 15  0  0  0  0  0  0
    2.1214    0.0000    0.0000 Cu  0  0  0  0  0 15  0  0  0  0  0  0
M  END
$$$$
ethofumesate
 OpenBabel03171423152D

 19 20  0  0  0  0  0  0  0  0999 V2000
   -2.6909   -1.4124    0.0000 C   0  0  0  0  0  0  0  0  0  0  0  0
   -1.8659   -1.4124    0.0000 C   0  0  0  0  0  0  0  0  0  0  0  0
   -1.4534   -0.6979    0.0000 O   0  0  0  0  0  0  0  0  0  0  0  0
   -0.6284   -0.6979    0.0000 C   0  0  3  0  0  0  0  0  0  0  0  0
   -0.1435   -1.3654    0.0000 O   0  0  0  0  0  0  0  0  0  0  0  0
    0.6411   -1.1104    0.0000 C   0  0  0  0  0  0  0  0  0  0  0  0
    0.6411   -0.2854    0.0000 C   0  0  0  0  0  0  0  0  0  0  0  0
    1.3556    0.1271    0.0000 C   0  0  0  0  0  0  0  0  0  0  0  0
    2.0701   -0.2854    0.0000 C   0  0  0  0  0  0  0  0  0  0  0  0
    2.7845    0.1271    0.0000 O   0  0  0  0  0  0  0  0  0  0  0  0
    2.7845    0.9521    0.0000 S   0  0  0  0  0  0  0  0  0  0  0  0
    2.7845    1.7771    0.0000 C   0  0  0  0  0  0  0  0  0  0  0  0
    3.6095    0.9521    0.0000 O   0  0  0  0  0  0  0  0  0  0  0  0
    1.9595    0.9521    0.0000 O   0  0  0  0  0  0  0  0  0  0  0  0
    2.0701   -1.1104    0.0000 C   0  0  0  0  0  0  0  0  0  0  0  0
    1.3556   -1.5229    0.0000 C   0  0  0  0  0  0  0  0  0  0  0  0
   -0.1435   -0.0305    0.0000 C   0  0  0  0  0  0  0  0  0  0  0  0
    0.0196    0.7782    0.0000 C   0  0  0  0  0  0  0  0  0  0  0  0
   -0.7508    0.5279    0.0000 C   0  0  0  0  0  0  0  0  0  0  0  0
  1  2  1  0  0  0  0
  2  3  1  0  0  0  0
  3  4  1  0  0  0  0
  4  5  1  0  0  0  0
  4 17  1  0  0  0  0
  5  6  1  0  0  0  0
  6  7  2  0  0  0  0
  6 16  1  0  0  0  0
  7  8  1  0  0  0  0
  7 17  1  0  0  0  0
  8  9  2  0  0  0  0
  9 10  1  0  0  0  0
  9 15  1  0  0  0  0
 10 11  1  0  0  0  0
 11 12  1  0  0  0  0
 11 13  2  0  0  0  0
 11 14  2  0  0  0  0
 15 16  2  0  0  0  0
 17 18  1  0  0  0  0
 17 19  1  0  0  0  0
M  END
$$$$
disodium dihydrogen phosphate
 OpenBabel03171423152D

  7  4  0  0  0  0  0  0  0  0999 V2000
    0.0000    0.0000    0.0000 Na  0  3  0  0  0 15  0  0  0  0  0  0
    1.0018    0.0000    0.0000 Na  0  3  0  0  0 15  0  0  0  0  0  0
    0.0000   -3.3000    0.0000 O   0  0  0  0  0  0  0  0  0  0  0  0
    0.0000   -2.4750    0.0000 P   0  0  0  0  0  0  0  0  0  0  0  0
    0.0000   -1.6500    0.0000 O   0  0  0  0  0  0  0  0  0  0  0  0
    0.8250   -2.4750    0.0000 O   0  5  0  0  0  0  0  0  0  0  0  0
   -0.8250   -2.4750    0.0000 O   0  0  0  0  0  0  0  0  0  0  0  0
  3  4  1  0  0  0  0
  4  5  1  0  0  0  0
  4  6  1  0  0  0  0
  4  7  2  0  0  0  0
M  CHG  3   1   1   2   1   6  -1
M  END
$$$$
Carbendazim
 OpenBabel03171423152D

 14 15  0  0  0  0  0  0  0  0999 V2000
   -3.1034   -2.1269    0.0000 C   0  0  0  0  0  0  0  0  0  0  0  0
   -2.6909   -1.4124    0.0000 O   0  0  0  0  0  0  0  0  0  0  0  0
   -1.8659   -1.4124    0.0000 C   0  0  0  0  0  0  0  0  0  0  0  0
   -1.4534   -2.1269    0.0000 O   0  0  0  0  0  0  0  0  0  0  0  0
   -1.4534   -0.6979    0.0000 N   0  0  0  0  0  0  0  0  0  0  0  0
   -0.6284   -0.6979    0.0000 C   0  0  0  0  0  0  0  0  0  0  0  0
   -0.1435   -1.3654    0.0000 N   0  0  0  0  0  0  0  0  0  0  0  0
    0.6411   -1.1104    0.0000 C   0  0  0  0  0  0  0  0  0  0  0  0
    0.6411   -0.2854    0.0000 C   0  0  0  0  0  0  0  0  0  0  0  0
   -0.1435   -0.0305    0.0000 N   0  0  0  0  0  0  0  0  0  0  0  0
    1.3556    0.1271    0.0000 C   0  0  0  0  0  0  0  0  0  0  0  0
    2.0701   -0.2854    0.0000 C   0  0  0  0  0  0  0  0  0  0  0  0
    2.0701   -1.1104    0.0000 C   0  0  0  0  0  0  0  0  0  0  0  0
    1.3556   -1.5229    0.0000 C   0  0  0  0  0  0  0  0  0  0  0  0
  1  2  1  0  0  0  0
  2  3  1  0  0  0  0
  3  4  2  0  0  0  0
  3  5  1  0  0  0  0
  5  6  1  0  0  0  0
  6  7  2  0  0  0  0
  6 10  1  0  0  0  0
  7  8  1  0  0  0  0
  8  9  2  0  0  0  0
  8 14  1  0  0  0  0
  9 10  1  0  0  0  0
  9 11  1  0  0  0  0
 11 12  2  0  0  0  0
 12 13  1  0  0  0  0
 13 14  2  0  0  0  0
M  END
$$$$
Oryzalin
 OpenBabel03171423152D

 23 23  0  0  0  0  0  0  0  0999 V2000
    0.7145   -2.0625    0.0000 C   0  0  0  0  0  0  0  0  0  0  0  0
    1.4289   -2.4750    0.0000 C   0  0  0  0  0  0  0  0  0  0  0  0
    1.4289   -3.3000    0.0000 C   0  0  0  0  0  0  0  0  0  0  0  0
    2.1434   -3.7125    0.0000 N   0  0  0  0  0  0  0  0  0  0  0  0
    2.8579   -3.3000    0.0000 C   0  0  0  0  0  0  0  0  0  0  0  0
    2.8579   -2.4750    0.0000 C   0  0  0  0  0  0  0  0  0  0  0  0
    3.5724   -2.0625    0.0000 C   0  0  0  0  0  0  0  0  0  0  0  0
    2.1434   -4.5375    0.0000 C   0  0  0  0  0  0  0  0  0  0  0  0
    2.8579   -4.9500    0.0000 C   0  0  0  0  0  0  0  0  0  0  0  0
    2.8579   -5.7750    0.0000 C   0  0  0  0  0  0  0  0  0  0  0  0
    2.1434   -6.1875    0.0000 C   0  0  0  0  0  0  0  0  0  0  0  0
    1.4289   -5.7750    0.0000 C   0  0  0  0  0  0  0  0  0  0  0  0
    1.4289   -4.9500    0.0000 C   0  0  0  0  0  0  0  0  0  0  0  0
    0.7145   -4.5375    0.0000 N   0  3  0  0  0  0  0  0  0  0  0  0
    0.7145   -3.7125    0.0000 O   0  5  0  0  0  0  0  0  0  0  0  0
    0.0000   -4.9500    0.0000 O   0  0  0  0  0  0  0  0  0  0  0  0
    2.1434   -7.0125    0.0000 S   0  0  0  0  0  0  0  0  0  0  0  0
    2.1434   -7.8375    0.0000 N   0  0  0  0  0  0  0  0  0  0  0  0
    1.3184   -7.0125    0.0000 O   0  0  0  0  0  0  0  0  0  0  0  0
    2.9684   -7.0125    0.0000 O   0  0  0  0  0  0  0  0  0  0  0  0
    3.5724   -4.5375    0.0000 N   0  3  0  0  0  0  0  0  0  0  0  0
    4.2868   -4.9500    0.0000 O   0  5  0  0  0  0  0  0  0  0  0  0
    3.5724   -3.7125    0.0000 O   0  0  0  0  0  0  0  0  0  0  0  0
  1  2  1  0  0  0  0
  2  3  1  0  0  0  0
  3  4  1  0  0  0  0
  4  5  1  0  0  0  0
  4  8  1  0  0  0  0
  5  6  1  0  0  0  0
  6  7  1  0  0  0  0
  8  9  2  0  0  0  0
  8 13  1  0  0  0  0
  9 10  1  0  0  0  0
  9 21  1  0  0  0  0
 10 11  2  0  0  0  0
 11 12  1  0  0  0  0
 11 17  1  0  0  0  0
 12 13  2  0  0  0  0
 13 14  1  0  0  0  0
 14 15  1  0  0  0  0
 14 16  2  0  0  0  0
 17 18  1  0  0  0  0
 17 19  2  0  0  0  0
 17 20  2  0  0  0  0
 21 22  1  0  0  0  0
 21 23  2  0  0  0  0
M  CHG  4  14   1  15  -1  21   1  22  -1
M  END
$$$$
Sorbitol Octanoate
 OpenBabel03171423152D

 22 21  0  0  1  0  0  0  0  0999 V2000
   10.2829    4.2868    0.0000 C   0  0  0  0  0  0  0  0  0  0  0  0
    9.5684    4.6993    0.0000 C   0  0  0  0  0  0  0  0  0  0  0  0
    8.8539    4.2868    0.0000 C   0  0  0  0  0  0  0  0  0  0  0  0
    8.1395    4.6993    0.0000 C   0  0  0  0  0  0  0  0  0  0  0  0
    7.4250    4.2868    0.0000 C   0  0  0  0  0  0  0  0  0  0  0  0
    6.7105    4.6993    0.0000 C   0  0  0  0  0  0  0  0  0  0  0  0
    5.9961    4.2868    0.0000 C   0  0  0  0  0  0  0  0  0  0  0  0
   10.9974    4.6993    0.0000 C   0  0  0  0  0  0  0  0  0  0  0  0
   10.9974    5.5243    0.0000 O   0  0  0  0  0  0  0  0  0  0  0  0
   11.7118    4.2868    0.0000 O   0  0  0  0  0  0  0  0  0  0  0  0
   12.4263    5.5243    0.0000 O   0  0  0  0  0  0  0  0  0  0  0  0
   12.4263    4.6993    0.0000 C   0  0  3  0  0  0  0  0  0  0  0  0
   13.1408    4.2868    0.0000 C   0  0  2  0  0  0  0  0  0  0  0  0
   13.1408    3.4618    0.0000 O   0  0  0  0  0  0  0  0  0  0  0  0
   13.8552    4.6993    0.0000 C   0  0  1  0  0  0  0  0  0  0  0  0
   13.8552    5.5243    0.0000 O   0  0  0  0  0  0  0  0  0  0  0  0
   14.5697    4.2868    0.0000 C   0  0  2  0  0  0  0  0  0  0  0  0
   14.5697    3.4618    0.0000 O   0  0  0  0  0  0  0  0  0  0  0  0
   15.2842    4.6993    0.0000 C   0  0  2  0  0  0  0  0  0  0  0  0
   15.2842    5.5243    0.0000 O   0  0  0  0  0  0  0  0  0  0  0  0
   15.9987    4.2868    0.0000 C   0  0  0  0  0  0  0  0  0  0  0  0
   16.7131    4.6993    0.0000 O   0  0  0  0  0  0  0  0  0  0  0  0
  1  2  1  0  0  0  0
  1  8  1  0  0  0  0
  2  3  1  0  0  0  0
  3  4  1  0  0  0  0
  4  5  1  0  0  0  0
  5  6  1  0  0  0  0
  6  7  1  0  0  0  0
  8  9  2  0  0  0  0
  8 10  1  0  0  0  0
 10 12  1  0  0  0  0
 11 12  1  0  0  0  0
 12 13  1  0  0  0  0
 13 14  1  1  0  0  0
 13 15  1  0  0  0  0
 15 16  1  1  0  0  0
 15 17  1  0  0  0  0
 17 18  1  1  0  0  0
 17 19  1  0  0  0  0
 19 20  1  6  0  0  0
 19 21  1  0  0  0  0
 21 22  1  0  0  0  0
M  END
>  <type>
systematic

$$$$
?-Pinene
 OpenBabel03171423152D

 10 11  0  0  0  0  0  0  0  0999 V2000
    0.9460   -1.7077    0.0000 C   0  0  0  0  0  0  0  0  0  0  0  0
    1.2262   -0.9317    0.0000 C   0  0  0  0  0  0  0  0  0  0  0  0
    1.7412   -1.3594    0.0000 C   0  0  0  0  0  0  0  0  0  0  0  0
    1.6033   -0.5439    0.0000 C   0  0  0  0  0  0  0  0  0  0  0  0
    0.6768   -0.5594    0.0000 C   0  0  3  0  0  0  0  0  0  0  0  0
    0.1175   -0.1206    0.0000 C   0  0  0  0  0  0  0  0  0  0  0  0
    0.2569   -0.9317    0.0000 C   0  0  3  0  0  0  0  0  0  0  0  0
    0.1762   -1.6279    0.0000 C   0  0  0  0  0  0  0  0  0  0  0  0
   -0.5053   -2.0928    0.0000 C   0  0  0  0  0  0  0  0  0  0  0  0
    0.5116   -2.3817    0.0000 C   0  0  0  0  0  0  0  0  0  0  0  0
  1  2  1  0  0  0  0
  2  3  2  0  0  0  0
  2  7  1  0  0  0  0
  3  4  1  0  0  0  0
  4  5  1  0  0  0  0
  5  6  1  0  0  0  0
  5  8  1  0  0  0  0
  6  7  1  0  0  0  0
  7  8  1  0  0  0  0
  8  9  1  0  0  0  0
  8 10  1  0  0  0  0
M  END
$$$$
chloride
 OpenBabel03171423152D

  1  0  0  0  0  0  0  0  0  0999 V2000
    0.0000    0.0000    0.0000 Cl  0  5  0  0  0  0  0  0  0  0  0  0
M  CHG  1   1  -1
M  END
$$$$
biurea
 OpenBabel03171423152D

  8  7  0  0  0  0  0  0  0  0999 V2000
   -0.1914    0.7145    0.0000 N   0  0  0  0  0  0  0  0  0  0  0  0
    0.5230    1.1270    0.0000 C   0  0  0  0  0  0  0  0  0  0  0  0
    0.5230    1.9520    0.0000 O   0  0  0  0  0  0  0  0  0  0  0  0
    1.2375    0.7145    0.0000 N   0  0  0  0  0  0  0  0  0  0  0  0
    1.9520    1.1270    0.0000 N   0  0  0  0  0  0  0  0  0  0  0  0
    2.6664    0.7145    0.0000 C   0  0  0  0  0  0  0  0  0  0  0  0
    3.3809    1.1270    0.0000 N   0  0  0  0  0  0  0  0  0  0  0  0
    2.6664   -0.1105    0.0000 O   0  0  0  0  0  0  0  0  0  0  0  0
  1  2  1  0  0  0  0
  2  3  2  0  0  0  0
  2  4  1  0  0  0  0
  4  5  1  0  0  0  0
  5  6  1  0  0  0  0
  6  7  1  0  0  0  0
  6  8  2  0  0  0  0
M  END
$$$$
spiromesifen
 OpenBabel03171423152D

 27 29  0  0  0  0  0  0  0  0999 V2000
   -2.6698    2.7647    0.0000 C   0  0  0  0  0  0  0  0  0  0  0  0
   -2.0023    2.2798    0.0000 C   0  0  0  0  0  0  0  0  0  0  0  0
   -1.2486    2.6153    0.0000 C   0  0  0  0  0  0  0  0  0  0  0  0
   -0.5812    2.1304    0.0000 C   0  0  0  0  0  0  0  0  0  0  0  0
    0.1725    2.4660    0.0000 C   0  0  0  0  0  0  0  0  0  0  0  0
   -0.6674    1.3099    0.0000 C   0  0  0  0  0  0  0  0  0  0  0  0
    0.0000    0.8250    0.0000 C   0  0  0  0  0  0  0  0  0  0  0  0
    0.7846    1.0799    0.0000 C   0  0  0  0  0  0  0  0  0  0  0  0
    1.0396    1.8646    0.0000 O   0  0  0  0  0  0  0  0  0  0  0  0
    1.8465    2.0361    0.0000 C   0  0  0  0  0  0  0  0  0  0  0  0
    2.3986    1.4230    0.0000 O   0  0  0  0  0  0  0  0  0  0  0  0
    2.1015    2.8207    0.0000 C   0  0  0  0  0  0  0  0  0  0  0  0
    1.5494    3.4338    0.0000 C   0  0  0  0  0  0  0  0  0  0  0  0
    0.9974    4.0469    0.0000 C   0  0  0  0  0  0  0  0  0  0  0  0
    2.1625    3.9858    0.0000 C   0  0  0  0  0  0  0  0  0  0  0  0
    0.9363    2.8818    0.0000 C   0  0  0  0  0  0  0  0  0  0  0  0
    1.2695    0.4125    0.0000 C   0  0  0  0  0  0  0  0  0  0  0  0
    1.7545    1.0799    0.0000 C   0  0  0  0  0  0  0  0  0  0  0  0
    2.5391    0.8250    0.0000 C   0  0  0  0  0  0  0  0  0  0  0  0
    2.5391    0.0000    0.0000 C   0  0  0  0  0  0  0  0  0  0  0  0
    1.7545   -0.2549    0.0000 C   0  0  0  0  0  0  0  0  0  0  0  0
    0.7846   -0.2549    0.0000 O   0  0  0  0  0  0  0  0  0  0  0  0
   -0.0000    0.0000    0.0000 C   0  0  0  0  0  0  0  0  0  0  0  0
   -0.6674   -0.4849    0.0000 O   0  0  0  0  0  0  0  0  0  0  0  0
   -1.4211    0.9744    0.0000 C   0  0  0  0  0  0  0  0  0  0  0  0
   -1.5074    0.1539    0.0000 C   0  0  0  0  0  0  0  0  0  0  0  0
   -2.0886    1.4593    0.0000 C   0  0  0  0  0  0  0  0  0  0  0  0
  1  2  1  0  0  0  0
  2  3  2  0  0  0  0
  2 27  1  0  0  0  0
  3  4  1  0  0  0  0
  4  5  1  0  0  0  0
  4  6  2  0  0  0  0
  6  7  1  0  0  0  0
  6 25  1  0  0  0  0
  7  8  2  0  0  0  0
  7 23  1  0  0  0  0
  8  9  1  0  0  0  0
  8 17  1  0  0  0  0
  9 10  1  0  0  0  0
 10 11  2  0  0  0  0
 10 12  1  0  0  0  0
 12 13  1  0  0  0  0
 13 14  1  0  0  0  0
 13 15  1  0  0  0  0
 13 16  1  0  0  0  0
 17 18  1  0  0  0  0
 17 21  1  0  0  0  0
 17 22  1  0  0  0  0
 18 19  1  0  0  0  0
 19 20  1  0  0  0  0
 20 21  1  0  0  0  0
 22 23  1  0  0  0  0
 23 24  2  0  0  0  0
 25 26  1  0  0  0  0
 25 27  2  0  0  0  0
M  END
$$$$
Pondmaster
 OpenBabel03171423152D

 10  9  0  0  0  0  0  0  0  0999 V2000
   -0.6039   -3.3000    0.0000 O   0  0  0  0  0  0  0  0  0  0  0  0
   -0.6039   -2.4750    0.0000 C   0  0  0  0  0  0  0  0  0  0  0  0
   -1.3184   -2.0625    0.0000 O   0  0  0  0  0  0  0  0  0  0  0  0
    0.1105   -2.0625    0.0000 C   0  0  0  0  0  0  0  0  0  0  0  0
    0.1105   -1.2375    0.0000 N   0  3  0  0  0  0  0  0  0  0  0  0
    0.8250   -0.8250    0.0000 C   0  0  0  0  0  0  0  0  0  0  0  0
    0.8250    0.0000    0.0000 P   0  0  0  0  0  0  0  0  0  0  0  0
    0.8250    0.8250    0.0000 O   0  0  0  0  0  0  0  0  0  0  0  0
    1.6500   -0.0000    0.0000 O   0  0  0  0  0  0  0  0  0  0  0  0
    0.0000    0.0000    0.0000 O   0  0  0  0  0  0  0  0  0  0  0  0
  1  2  1  0  0  0  0
  2  3  2  0  0  0  0
  2  4  1  0  0  0  0
  4  5  1  0  0  0  0
  5  6  1  0  0  0  0
  6  7  1  0  0  0  0
  7  8  1  0  0  0  0
  7  9  1  0  0  0  0
  7 10  2  0  0  0  0
M  CHG  1   5   1
M  END
>  <type>
common

$$$$
peroxyhydrate
 OpenBabel03171423152D

  3  1  0  0  0  0  0  0  0  0999 V2000
    0.0000    0.0000    0.0000 O   0  0  0  0  0  0  0  0  0  0  0  0
    2.9464    0.0000    0.0000 O   0  0  0  0  0  0  0  0  0  0  0  0
    2.1214    0.0000    0.0000 O   0  0  0  0  0  0  0  0  0  0  0  0
  2  3  1  0  0  0  0
M  END
$$$$
Chlormequat chloride
 OpenBabel03171423152D

  8  6  0  0  0  0  0  0  0  0999 V2000
    0.0000    0.0000    0.0000 Cl  0  5  0  0  0  0  0  0  0  0  0  0
    5.0089   -0.2041    0.0000 C   0  0  0  0  0  0  0  0  0  0  0  0
    4.1839   -0.2041    0.0000 N   0  3  0  0  0  0  0  0  0  0  0  0
    4.1839    0.6209    0.0000 C   0  0  0  0  0  0  0  0  0  0  0  0
    4.1839   -1.0291    0.0000 C   0  0  0  0  0  0  0  0  0  0  0  0
    3.3589   -0.2041    0.0000 C   0  0  0  0  0  0  0  0  0  0  0  0
    2.9464    0.5103    0.0000 C   0  0  0  0  0  0  0  0  0  0  0  0
    2.1214    0.5103    0.0000 Cl  0  0  0  0  0  0  0  0  0  0  0  0
  2  3  1  0  0  0  0
  3  4  1  0  0  0  0
  3  5  1  0  0  0  0
  3  6  1  0  0  0  0
  6  7  1  0  0  0  0
  7  8  1  0  0  0  0
M  CHG  2   1  -1   3   1
M  END
$$$$
hydramethylnon
 OpenBabel03171423152D

 35 37  0  0  0  0  0  0  0  0999 V2000
   -0.8986   -1.8430    0.0000 C   0  0  0  0  0  0  0  0  0  0  0  0
   -1.4289   -2.4750    0.0000 C   0  0  0  0  0  0  0  0  0  0  0  0
   -1.9592   -1.8430    0.0000 C   0  0  0  0  0  0  0  0  0  0  0  0
   -0.7145   -2.8875    0.0000 C   0  0  0  0  0  0  0  0  0  0  0  0
   -0.7145   -3.7125    0.0000 N   0  0  0  0  0  0  0  0  0  0  0  0
   -1.4289   -4.1250    0.0000 C   0  0  0  0  0  0  0  0  0  0  0  0
   -1.4289   -4.9500    0.0000 N   0  0  0  0  0  0  0  0  0  0  0  0
   -2.1434   -5.3625    0.0000 N   0  0  0  0  0  0  0  0  0  0  0  0
   -2.1434   -6.1875    0.0000 C   0  0  0  0  0  0  0  0  0  0  0  0
   -2.8579   -6.6000    0.0000 C   0  0  0  0  0  0  0  0  0  0  0  0
   -2.8579   -7.4250    0.0000 C   0  0  0  0  0  0  0  0  0  0  0  0
   -3.5724   -7.8375    0.0000 C   0  0  0  0  0  0  0  0  0  0  0  0
   -3.5724   -8.6625    0.0000 C   0  0  0  0  0  0  0  0  0  0  0  0
   -4.2868   -9.0750    0.0000 C   0  0  0  0  0  0  0  0  0  0  0  0
   -5.0013   -8.6625    0.0000 C   0  0  0  0  0  0  0  0  0  0  0  0
   -5.0013   -7.8375    0.0000 C   0  0  0  0  0  0  0  0  0  0  0  0
   -4.2868   -7.4250    0.0000 C   0  0  0  0  0  0  0  0  0  0  0  0
   -5.7158   -9.0750    0.0000 C   0  0  0  0  0  0  0  0  0  0  0  0
   -6.4302   -9.4875    0.0000 F   0  0  0  0  0  0  0  0  0  0  0  0
   -5.3033   -9.7895    0.0000 F   0  0  0  0  0  0  0  0  0  0  0  0
   -6.1283   -8.3605    0.0000 F   0  0  0  0  0  0  0  0  0  0  0  0
   -1.4289   -6.6000    0.0000 C   0  0  0  0  0  0  0  0  0  0  0  0
   -0.7145   -6.1875    0.0000 C   0  0  0  0  0  0  0  0  0  0  0  0
   -0.0000   -6.6000    0.0000 C   0  0  0  0  0  0  0  0  0  0  0  0
    0.7145   -6.1875    0.0000 C   0  0  0  0  0  0  0  0  0  0  0  0
    1.4289   -6.6000    0.0000 C   0  0  0  0  0  0  0  0  0  0  0  0
    1.4289   -7.4250    0.0000 C   0  0  0  0  0  0  0  0  0  0  0  0
    0.7145   -7.8375    0.0000 C   0  0  0  0  0  0  0  0  0  0  0  0
   -0.0000   -7.4250    0.0000 C   0  0  0  0  0  0  0  0  0  0  0  0
    2.1434   -7.8375    0.0000 C   0  0  0  0  0  0  0  0  0  0  0  0
    2.8579   -8.2500    0.0000 F   0  0  0  0  0  0  0  0  0  0  0  0
    1.7309   -8.5520    0.0000 F   0  0  0  0  0  0  0  0  0  0  0  0
    2.5559   -7.1230    0.0000 F   0  0  0  0  0  0  0  0  0  0  0  0
   -2.1434   -3.7125    0.0000 N   0  0  0  0  0  0  0  0  0  0  0  0
   -2.1434   -2.8875    0.0000 C   0  0  0  0  0  0  0  0  0  0  0  0
  1  2  1  0  0  0  0
  2  3  1  0  0  0  0
  2  4  1  0  0  0  0
  2 35  1  0  0  0  0
  4  5  1  0  0  0  0
  5  6  1  0  0  0  0
  6  7  1  0  0  0  0
  6 34  2  0  0  0  0
  7  8  1  0  0  0  0
  8  9  2  0  0  0  0
  9 10  1  0  0  0  0
  9 22  1  0  0  0  0
 10 11  2  0  0  0  0
 11 12  1  0  0  0  0
 12 13  2  0  0  0  0
 12 17  1  0  0  0  0
 13 14  1  0  0  0  0
 14 15  2  0  0  0  0
 15 16  1  0  0  0  0
 15 18  1  0  0  0  0
 16 17  2  0  0  0  0
 18 19  1  0  0  0  0
 18 20  1  0  0  0  0
 18 21  1  0  0  0  0
 22 23  2  0  0  0  0
 23 24  1  0  0  0  0
 24 25  2  0  0  0  0
 24 29  1  0  0  0  0
 25 26  1  0  0  0  0
 26 27  2  0  0  0  0
 27 28  1  0  0  0  0
 27 30  1  0  0  0  0
 28 29  2  0  0  0  0
 30 31  1  0  0  0  0
 30 32  1  0  0  0  0
 30 33  1  0  0  0  0
 34 35  1  0  0  0  0
M  END
$$$$
halosulfuron-methyl
 OpenBabel03171423152D

 28 29  0  0  0  0  0  0  0  0999 V2000
    4.1801   -0.8866    0.0000 C   0  0  0  0  0  0  0  0  0  0  0  0
    4.1801   -1.7116    0.0000 O   0  0  0  0  0  0  0  0  0  0  0  0
    3.4656   -2.1241    0.0000 C   0  0  0  0  0  0  0  0  0  0  0  0
    2.7512   -1.7116    0.0000 O   0  0  0  0  0  0  0  0  0  0  0  0
    3.4656   -2.9491    0.0000 C   0  0  0  0  0  0  0  0  0  0  0  0
    4.1331   -3.4340    0.0000 C   0  0  0  0  0  0  0  0  0  0  0  0
    4.9177   -3.1791    0.0000 Cl  0  0  0  0  0  0  0  0  0  0  0  0
    3.8781   -4.2187    0.0000 N   0  0  0  0  0  0  0  0  0  0  0  0
    3.0531   -4.2187    0.0000 N   0  0  0  0  0  0  0  0  0  0  0  0
    2.5682   -4.8861    0.0000 C   0  0  0  0  0  0  0  0  0  0  0  0
    2.7982   -3.4340    0.0000 C   0  0  3  0  0  0  0  0  0  0  0  0
    2.0136   -3.1791    0.0000 S   0  0  0  0  0  0  0  0  0  0  0  0
    2.2685   -2.3945    0.0000 O   0  0  0  0  0  0  0  0  0  0  0  0
    1.7586   -3.9637    0.0000 O   0  0  0  0  0  0  0  0  0  0  0  0
    1.2290   -2.9242    0.0000 N   0  0  0  0  0  0  0  0  0  0  0  0
    1.0574   -2.1172    0.0000 C   0  0  0  0  0  0  0  0  0  0  0  0
    1.6705   -1.5651    0.0000 O   0  0  0  0  0  0  0  0  0  0  0  0
    0.2728   -1.8622    0.0000 N   0  0  0  0  0  0  0  0  0  0  0  0
    0.1013   -1.0553    0.0000 C   0  0  0  0  0  0  0  0  0  0  0  0
   -0.6833   -0.8003    0.0000 N   0  0  0  0  0  0  0  0  0  0  0  0
   -0.8549    0.0066    0.0000 C   0  0  0  0  0  0  0  0  0  0  0  0
   -1.6395    0.2616    0.0000 O   0  0  0  0  0  0  0  0  0  0  0  0
   -2.2526   -0.2905    0.0000 C   0  0  0  0  0  0  0  0  0  0  0  0
   -0.2418    0.5587    0.0000 C   0  0  0  0  0  0  0  0  0  0  0  0
    0.5429    0.3037    0.0000 C   0  0  0  0  0  0  0  0  0  0  0  0
    1.1560    0.8558    0.0000 O   0  0  0  0  0  0  0  0  0  0  0  0
    1.9406    0.6008    0.0000 C   0  0  0  0  0  0  0  0  0  0  0  0
    0.7144   -0.5032    0.0000 N   0  0  0  0  0  0  0  0  0  0  0  0
  1  2  1  0  0  0  0
  2  3  1  0  0  0  0
  3  4  2  0  0  0  0
  3  5  1  0  0  0  0
  5  6  2  0  0  0  0
  5 11  1  0  0  0  0
  6  7  1  0  0  0  0
  6  8  1  0  0  0  0
  8  9  1  0  0  0  0
  9 10  1  0  0  0  0
  9 11  1  0  0  0  0
 11 12  1  0  0  0  0
 12 13  2  0  0  0  0
 12 14  2  0  0  0  0
 12 15  1  0  0  0  0
 15 16  1  0  0  0  0
 16 17  2  0  0  0  0
 16 18  1  0  0  0  0
 18 19  1  0  0  0  0
 19 20  2  0  0  0  0
 19 28  1  0  0  0  0
 20 21  1  0  0  0  0
 21 22  1  0  0  0  0
 21 24  2  0  0  0  0
 22 23  1  0  0  0  0
 24 25  1  0  0  0  0
 25 26  1  0  0  0  0
 25 28  2  0  0  0  0
 26 27  1  0  0  0  0
M  END
$$$$
methyl ester
 OpenBabel03171423152D

 26 29  0  0  1  0  0  0  0  0999 V2000
    1.2383   -3.6793    0.0000 C   0  0  0  0  0  0  0  0  0  0  0  0
    1.7447   -3.0280    0.0000 O   0  0  0  0  0  0  0  0  0  0  0  0
    2.5619   -3.1408    0.0000 C   0  0  0  0  0  0  0  0  0  0  0  0
    2.8728   -3.9050    0.0000 O   0  0  0  0  0  0  0  0  0  0  0  0
    3.0683   -2.4895    0.0000 C   0  0  1  0  0  0  0  0  0  0  0  0
    2.8390   -1.6970    0.0000 C   0  0  0  0  0  0  0  0  0  0  0  0
    3.5218   -1.2340    0.0000 C   0  0  0  0  0  0  0  0  0  0  0  0
    4.1731   -1.7404    0.0000 C   0  0  1  0  0  0  0  0  0  0  0  0
    4.9853   -1.5952    0.0000 C   0  0  0  0  0  0  0  0  0  0  0  0
    5.2655   -0.8192    0.0000 C   0  0  0  0  0  0  0  0  0  0  0  0
    6.0777   -0.6740    0.0000 C   0  0  0  0  0  0  0  0  0  0  0  0
    6.3580    0.1019    0.0000 O   0  0  0  0  0  0  0  0  0  0  0  0
    7.1701    0.2471    0.0000 C   0  0  0  0  0  0  0  0  0  0  0  0
    6.6095   -1.3047    0.0000 C   0  0  0  0  0  0  0  0  0  0  0  0
    7.4216   -1.1595    0.0000 C   0  0  0  0  0  0  0  0  0  0  0  0
    7.9534   -1.7902    0.0000 C   0  0  0  0  0  0  0  0  0  0  0  0
    8.7655   -1.6450    0.0000 O   0  0  0  0  0  0  0  0  0  0  0  0
    9.0458   -0.8691    0.0000 C   0  0  0  0  0  0  0  0  0  0  0  0
    7.6731   -2.5662    0.0000 C   0  0  0  0  0  0  0  0  0  0  0  0
    6.8610   -2.7114    0.0000 C   0  0  0  0  0  0  0  0  0  0  0  0
    6.3292   -2.0807    0.0000 C   0  0  0  0  0  0  0  0  0  0  0  0
    5.5171   -2.2259    0.0000 C   0  0  0  0  0  0  0  0  0  0  0  0
    5.2368   -3.0018    0.0000 C   0  0  0  0  0  0  0  0  0  0  0  0
    4.4247   -3.1470    0.0000 C   0  0  0  0  0  0  0  0  0  0  0  0
    3.8928   -2.5163    0.0000 C   0  0  2  0  0  0  0  0  0  0  0  0
    3.5330   -3.2587    0.0000 C   0  0  0  0  0  0  0  0  0  0  0  0
  1  2  1  0  0  0  0
  2  3  1  0  0  0  0
  3  4  2  0  0  0  0
  5  3  1  1  0  0  0
  5  6  1  0  0  0  0
  5 25  1  0  0  0  0
  6  7  1  0  0  0  0
  8  7  1  1  0  0  0
  8  9  1  0  0  0  0
  8 25  1  0  0  0  0
  9 10  2  0  0  0  0
  9 22  1  0  0  0  0
 10 11  1  0  0  0  0
 11 12  1  0  0  0  0
 11 14  2  0  0  0  0
 12 13  1  0  0  0  0
 14 15  1  0  0  0  0
 14 21  1  0  0  0  0
 15 16  2  0  0  0  0
 16 17  1  0  0  0  0
 16 19  1  0  0  0  0
 17 18  1  0  0  0  0
 19 20  2  0  0  0  0
 20 21  1  0  0  0  0
 21 22  2  0  0  0  0
 22 23  1  0  0  0  0
 23 24  1  0  0  0  0
 24 25  1  0  0  0  0
 25 26  1  1  0  0  0
M  END
>  <type>
common

$$$$
piperine
 OpenBabel03171423152D

 21 23  0  0  0  0  0  0  0  0999 V2000
    5.4957    5.6479    0.0000 O   0  0  0  0  0  0  0  0  0  0  0  0
    5.4957    4.8229    0.0000 C   0  0  0  0  0  0  0  0  0  0  0  0
    4.7812    4.4104    0.0000 C   0  0  0  0  0  0  0  0  0  0  0  0
    4.7812    3.5854    0.0000 C   0  0  0  0  0  0  0  0  0  0  0  0
    4.0668    3.1729    0.0000 C   0  0  0  0  0  0  0  0  0  0  0  0
    4.0668    2.3479    0.0000 C   0  0  0  0  0  0  0  0  0  0  0  0
    3.3523    1.9354    0.0000 C   0  0  0  0  0  0  0  0  0  0  0  0
    3.3523    1.1104    0.0000 C   0  0  0  0  0  0  0  0  0  0  0  0
    2.6378    0.6979    0.0000 C   0  0  0  0  0  0  0  0  0  0  0  0
    1.9233    1.1104    0.0000 C   0  0  0  0  0  0  0  0  0  0  0  0
    1.1387    0.8555    0.0000 O   0  0  0  0  0  0  0  0  0  0  0  0
    0.6538    1.5229    0.0000 C   0  0  0  0  0  0  0  0  0  0  0  0
    1.1387    2.1904    0.0000 O   0  0  0  0  0  0  0  0  0  0  0  0
    1.9233    1.9354    0.0000 C   0  0  0  0  0  0  0  0  0  0  0  0
    2.6378    2.3479    0.0000 C   0  0  0  0  0  0  0  0  0  0  0  0
    6.2102    4.4104    0.0000 N   0  0  0  0  0  0  0  0  0  0  0  0
    6.9246    4.8229    0.0000 C   0  0  0  0  0  0  0  0  0  0  0  0
    7.6391    4.4104    0.0000 C   0  0  0  0  0  0  0  0  0  0  0  0
    7.6391    3.5854    0.0000 C   0  0  0  0  0  0  0  0  0  0  0  0
    6.9246    3.1729    0.0000 C   0  0  0  0  0  0  0  0  0  0  0  0
    6.2102    3.5854    0.0000 C   0  0  0  0  0  0  0  0  0  0  0  0
  1  2  2  0  0  0  0
  2  3  1  0  0  0  0
  2 16  1  0  0  0  0
  3  4  2  0  0  0  0
  4  5  1  0  0  0  0
  5  6  2  0  0  0  0
  6  7  1  0  0  0  0
  7  8  2  0  0  0  0
  7 15  1  0  0  0  0
  8  9  1  0  0  0  0
  9 10  2  0  0  0  0
 10 11  1  0  0  0  0
 10 14  1  0  0  0  0
 11 12  1  0  0  0  0
 12 13  1  0  0  0  0
 13 14  1  0  0  0  0
 14 15  2  0  0  0  0
 16 17  1  0  0  0  0
 16 21  1  0  0  0  0
 17 18  1  0  0  0  0
 18 19  1  0  0  0  0
 19 20  1  0  0  0  0
 20 21  1  0  0  0  0
M  END
$$$$
sabadilla
 OpenBabel03171423152D

 37 43  0  0  0  0  0  0  0  0999 V2000
   -3.9724   -1.8652    0.0000 C   0  0  0  0  0  0  0  0  0  0  0  0
   -3.1639   -1.7008    0.0000 C   0  0  0  0  0  0  0  0  0  0  0  0
   -2.6173   -2.3187    0.0000 C   0  0  0  0  0  0  0  0  0  0  0  0
   -2.8791   -3.1010    0.0000 C   0  0  0  0  0  0  0  0  0  0  0  0
   -1.8088   -2.1542    0.0000 C   0  0  0  0  0  0  0  0  0  0  0  0
   -1.2622   -2.7721    0.0000 O   0  0  0  0  0  0  0  0  0  0  0  0
   -1.5471   -1.3718    0.0000 O   0  0  0  0  0  0  0  0  0  0  0  0
   -0.7386   -1.2073    0.0000 C   0  0  3  0  0  0  0  0  0  0  0  0
   -0.1181   -1.7643    0.0000 C   0  0  0  0  0  0  0  0  0  0  0  0
    0.6947   -1.5581    0.0000 C   0  0  0  0  0  0  0  0  0  0  0  0
    0.8710   -0.7114    0.0000 C   0  0  3  0  0  0  0  0  0  0  0  0
    0.1706   -0.0173    0.0000 C   0  0  3  0  0  0  0  0  0  0  0  0
    0.2111    0.8249    0.0000 C   0  0  0  0  0  0  0  0  0  0  0  0
    0.9737    1.1077    0.0000 C   0  0  0  0  0  0  0  0  0  0  0  0
    1.5661    0.5428    0.0000 C   0  0  3  0  0  0  0  0  0  0  0  0
    2.3702    0.7100    0.0000 C   0  0  3  0  0  0  0  0  0  0  0  0
    1.9113    1.3956    0.0000 O   0  0  0  0  0  0  0  0  0  0  0  0
    2.8333    1.3928    0.0000 C   0  0  0  0  0  0  0  0  0  0  0  0
    3.6562    1.3331    0.0000 C   0  0  3  0  0  0  0  0  0  0  0  0
    4.1193    2.0159    0.0000 O   0  0  0  0  0  0  0  0  0  0  0  0
    4.0159    0.5907    0.0000 C   0  0  3  0  0  0  0  0  0  0  0  0
    4.4790    1.2734    0.0000 C   0  0  0  0  0  0  0  0  0  0  0  0
    4.8388    0.5310    0.0000 C   0  0  0  0  0  0  0  0  0  0  0  0
    5.1985   -0.2115    0.0000 C   0  0  3  0  0  0  0  0  0  0  0  0
    6.0213   -0.2711    0.0000 C   0  0  0  0  0  0  0  0  0  0  0  0
    6.3811   -1.0136    0.0000 C   0  0  0  0  0  0  0  0  0  0  0  0
    5.9179   -1.6963    0.0000 C   0  0  0  0  0  0  0  0  0  0  0  0
    5.0951   -1.6366    0.0000 C   0  0  0  0  0  0  0  0  0  0  0  0
    4.7354   -0.8942    0.0000 N   0  0  3  0  0  0  0  0  0  0  0  0
    3.9125   -0.8345    0.0000 C   0  0  0  0  0  0  0  0  0  0  0  0
    3.5528   -0.0921    0.0000 C   0  0  3  0  0  0  0  0  0  0  0  0
    2.7300   -0.0324    0.0000 C   0  0  3  0  0  0  0  0  0  0  0  0
    2.1244   -0.6106    0.0000 C   0  0  0  0  0  0  0  0  0  0  0  0
    1.3187   -0.3144    0.0000 C   0  0  3  0  0  0  0  0  0  0  0  0
    0.3834   -0.9243    0.0000 O   0  0  0  0  0  0  0  0  0  0  0  0
   -0.3910   -0.4649    0.0000 C   0  0  3  0  0  0  0  0  0  0  0  0
   -0.6337    0.3235    0.0000 O   0  0  0  0  0  0  0  0  0  0  0  0
  1  2  1  0  0  0  0
  2  3  2  0  0  0  0
  3  4  1  0  0  0  0
  3  5  1  0  0  0  0
  5  6  2  0  0  0  0
  5  7  1  0  0  0  0
  7  8  1  0  0  0  0
  8  9  1  0  0  0  0
  8 36  1  0  0  0  0
  9 10  1  0  0  0  0
 10 11  1  0  0  0  0
 11 12  1  0  0  0  0
 11 34  1  0  0  0  0
 12 13  1  0  0  0  0
 12 36  1  0  0  0  0
 13 14  1  0  0  0  0
 14 15  1  0  0  0  0
 15 16  1  0  0  0  0
 15 34  1  0  0  0  0
 16 17  1  0  0  0  0
 16 18  1  0  0  0  0
 16 32  1  0  0  0  0
 18 19  1  0  0  0  0
 19 20  1  0  0  0  0
 19 21  1  0  0  0  0
 21 22  1  0  0  0  0
 21 23  1  0  0  0  0
 21 31  1  0  0  0  0
 23 24  1  0  0  0  0
 24 25  1  0  0  0  0
 24 29  1  0  0  0  0
 25 26  1  0  0  0  0
 26 27  1  0  0  0  0
 27 28  1  0  0  0  0
 28 29  1  0  0  0  0
 29 30  1  0  0  0  0
 30 31  1  0  0  0  0
 31 32  1  0  0  0  0
 32 33  1  0  0  0  0
 33 34  1  0  0  0  0
 34 35  1  0  0  0  0
 35 36  1  0  0  0  0
 36 37  1  0  0  0  0
M  END
>  <type>
common

$$$$
flutolanil
 OpenBabel03171423152D

 23 24  0  0  0  0  0  0  0  0999 V2000
    2.1434   -0.4125    0.0000 C   0  0  0  0  0  0  0  0  0  0  0  0
    2.1434   -1.2375    0.0000 C   0  0  0  0  0  0  0  0  0  0  0  0
    2.8579   -1.6500    0.0000 C   0  0  0  0  0  0  0  0  0  0  0  0
    1.4289   -1.6500    0.0000 O   0  0  0  0  0  0  0  0  0  0  0  0
    1.4289   -2.4750    0.0000 C   0  0  0  0  0  0  0  0  0  0  0  0
    2.1434   -2.8875    0.0000 C   0  0  0  0  0  0  0  0  0  0  0  0
    2.1434   -3.7125    0.0000 C   0  0  0  0  0  0  0  0  0  0  0  0
    1.4289   -4.1250    0.0000 C   0  0  0  0  0  0  0  0  0  0  0  0
    0.7145   -3.7125    0.0000 C   0  0  0  0  0  0  0  0  0  0  0  0
    0.0000   -4.1250    0.0000 N   0  0  0  0  0  0  0  0  0  0  0  0
    0.0000   -4.9500    0.0000 C   0  0  0  0  0  0  0  0  0  0  0  0
    0.7145   -5.3625    0.0000 O   0  0  0  0  0  0  0  0  0  0  0  0
   -0.7145   -5.3625    0.0000 C   0  0  0  0  0  0  0  0  0  0  0  0
   -0.7145   -6.1875    0.0000 C   0  0  0  0  0  0  0  0  0  0  0  0
   -1.4289   -6.6000    0.0000 C   0  0  0  0  0  0  0  0  0  0  0  0
   -2.1434   -6.1875    0.0000 C   0  0  0  0  0  0  0  0  0  0  0  0
   -2.1434   -5.3625    0.0000 C   0  0  0  0  0  0  0  0  0  0  0  0
   -1.4289   -4.9500    0.0000 C   0  0  0  0  0  0  0  0  0  0  0  0
   -1.4289   -4.1250    0.0000 C   0  0  0  0  0  0  0  0  0  0  0  0
   -1.4289   -3.3000    0.0000 F   0  0  0  0  0  0  0  0  0  0  0  0
   -0.6039   -4.1250    0.0000 F   0  0  0  0  0  0  0  0  0  0  0  0
   -2.2539   -4.1250    0.0000 F   0  0  0  0  0  0  0  0  0  0  0  0
    0.7145   -2.8875    0.0000 C   0  0  0  0  0  0  0  0  0  0  0  0
  1  2  1  0  0  0  0
  2  3  1  0  0  0  0
  2  4  1  0  0  0  0
  4  5  1  0  0  0  0
  5  6  2  0  0  0  0
  5 23  1  0  0  0  0
  6  7  1  0  0  0  0
  7  8  2  0  0  0  0
  8  9  1  0  0  0  0
  9 10  1  0  0  0  0
  9 23  2  0  0  0  0
 10 11  1  0  0  0  0
 11 12  2  0  0  0  0
 11 13  1  0  0  0  0
 13 14  2  0  0  0  0
 13 18  1  0  0  0  0
 14 15  1  0  0  0  0
 15 16  2  0  0  0  0
 16 17  1  0  0  0  0
 17 18  2  0  0  0  0
 18 19  1  0  0  0  0
 19 20  1  0  0  0  0
 19 21  1  0  0  0  0
 19 22  1  0  0  0  0
M  END
$$$$
2-(4,5-dihydro-4-methyl-4-isopropyl-5-oxo-1H-imidazol-2-yl)-5-methylpyridine-3-carboxylic acid
 OpenBabel03171423152D

 20 21  0  0  0  0  0  0  0  0999 V2000
    2.0735   -0.7959    0.0000 C   0  0  0  0  0  0  0  0  0  0  0  0
    1.2665   -0.6244    0.0000 C   0  0  0  0  0  0  0  0  0  0  0  0
    1.0116    0.1602    0.0000 C   0  0  0  0  0  0  0  0  0  0  0  0
    0.7145   -1.2375    0.0000 C   0  0  3  0  0  0  0  0  0  0  0  0
    0.1624   -0.6244    0.0000 C   0  0  0  0  0  0  0  0  0  0  0  0
    1.3819   -1.7224    0.0000 N   0  0  0  0  0  0  0  0  0  0  0  0
    1.1270   -2.5070    0.0000 C   0  0  0  0  0  0  0  0  0  0  0  0
    0.3020   -2.5070    0.0000 N   0  0  0  0  0  0  0  0  0  0  0  0
    0.0470   -1.7224    0.0000 C   0  0  0  0  0  0  0  0  0  0  0  0
   -0.7376   -1.4675    0.0000 O   0  0  0  0  0  0  0  0  0  0  0  0
    1.6119   -3.1745    0.0000 C   0  0  0  0  0  0  0  0  0  0  0  0
    2.4324   -3.0882    0.0000 N   0  0  0  0  0  0  0  0  0  0  0  0
    2.9173   -3.7557    0.0000 C   0  0  0  0  0  0  0  0  0  0  0  0
    2.5817   -4.5094    0.0000 C   0  0  0  0  0  0  0  0  0  0  0  0
    3.0667   -5.1768    0.0000 C   0  0  0  0  0  0  0  0  0  0  0  0
    1.7613   -4.5956    0.0000 C   0  0  0  0  0  0  0  0  0  0  0  0
    1.2763   -3.9282    0.0000 C   0  0  0  0  0  0  0  0  0  0  0  0
    0.4559   -4.0144    0.0000 C   0  0  0  0  0  0  0  0  0  0  0  0
   -0.0291   -3.3470    0.0000 O   0  0  0  0  0  0  0  0  0  0  0  0
    0.1203   -4.7681    0.0000 O   0  0  0  0  0  0  0  0  0  0  0  0
  1  2  1  0  0  0  0
  2  3  1  0  0  0  0
  2  4  1  0  0  0  0
  4  5  1  0  0  0  0
  4  6  1  0  0  0  0
  4  9  1  0  0  0  0
  6  7  2  0  0  0  0
  7  8  1  0  0  0  0
  7 11  1  0  0  0  0
  8  9  1  0  0  0  0
  9 10  2  0  0  0  0
 11 12  2  0  0  0  0
 11 17  1  0  0  0  0
 12 13  1  0  0  0  0
 13 14  2  0  0  0  0
 14 15  1  0  0  0  0
 14 16  1  0  0  0  0
 16 17  2  0  0  0  0
 17 18  1  0  0  0  0
 18 19  1  0  0  0  0
 18 20  2  0  0  0  0
M  END
$$$$
princep
 OpenBabel03171423152D

 13 13  0  0  0  0  0  0  0  0999 V2000
    1.4289    3.3000    0.0000 C   0  0  0  0  0  0  0  0  0  0  0  0
    1.4289    2.4750    0.0000 C   0  0  0  0  0  0  0  0  0  0  0  0
    0.7145    2.0625    0.0000 N   0  0  0  0  0  0  0  0  0  0  0  0
    0.7145    1.2375    0.0000 C   0  0  0  0  0  0  0  0  0  0  0  0
    1.4289    0.8250    0.0000 N   0  0  0  0  0  0  0  0  0  0  0  0
    1.4289   -0.0000    0.0000 C   0  0  0  0  0  0  0  0  0  0  0  0
    2.1434   -0.4125    0.0000 Cl  0  0  0  0  0  0  0  0  0  0  0  0
    0.7145   -0.4125    0.0000 N   0  0  0  0  0  0  0  0  0  0  0  0
    0.0000    0.0000    0.0000 C   0  0  0  0  0  0  0  0  0  0  0  0
   -0.7145   -0.4125    0.0000 N   0  0  0  0  0  0  0  0  0  0  0  0
   -1.4289    0.0000    0.0000 C   0  0  0  0  0  0  0  0  0  0  0  0
   -2.1434   -0.4125    0.0000 C   0  0  0  0  0  0  0  0  0  0  0  0
    0.0000    0.8250    0.0000 N   0  0  0  0  0  0  0  0  0  0  0  0
  1  2  1  0  0  0  0
  2  3  1  0  0  0  0
  3  4  1  0  0  0  0
  4  5  2  0  0  0  0
  4 13  1  0  0  0  0
  5  6  1  0  0  0  0
  6  7  1  0  0  0  0
  6  8  2  0  0  0  0
  8  9  1  0  0  0  0
  9 10  1  0  0  0  0
  9 13  2  0  0  0  0
 10 11  1  0  0  0  0
 11 12  1  0  0  0  0
M  END
$$$$
InChI=1S/C13H10N4O5.C6H8N2O/c18-13(14-9-1-5-11(6-2-9)16(19)20)15-10-3-7-12(8-4-10)17(21)22;1-4-3-5(2)8-6(9)7-4/h1-8H,(H2,14,15,18);3H,1-2H3,(H,7,8,9)
 OpenBabel03171423152D

 31 32  0  0  0  0  0  0  0  0999 V2000
   -0.5196    1.3500    0.0000 C   0  0  0  0  0  0  0  0  0  0  0  0
   -1.9486    1.3500    0.0000 C   0  0  0  0  0  0  0  0  0  0  0  0
    0.1949   -2.3625    0.0000 C   0  0  0  0  0  0  0  0  0  0  0  0
    0.9093   -1.1250    0.0000 C   0  0  0  0  0  0  0  0  0  0  0  0
   -0.5196    2.1750    0.0000 C   0  0  0  0  0  0  0  0  0  0  0  0
   -1.9486    2.1750    0.0000 C   0  0  0  0  0  0  0  0  0  0  0  0
    0.9093   -2.7750    0.0000 C   0  0  0  0  0  0  0  0  0  0  0  0
    1.6238   -1.5375    0.0000 C   0  0  0  0  0  0  0  0  0  0  0  0
   -1.2341    0.9375    0.0000 C   0  0  0  0  0  0  0  0  0  0  0  0
    0.1949   -1.5375    0.0000 C   0  0  0  0  0  0  0  0  0  0  0  0
   -1.2341    2.5875    0.0000 C   0  0  0  0  0  0  0  0  0  0  0  0
    1.6238   -2.3625    0.0000 C   0  0  0  0  0  0  0  0  0  0  0  0
   -0.5196   -0.3000    0.0000 C   0  0  0  0  0  0  0  0  0  0  0  0
   -1.2341    0.1125    0.0000 N   0  0  0  0  0  0  0  0  0  0  0  0
   -0.5196   -1.1250    0.0000 N   0  0  0  0  0  0  0  0  0  0  0  0
   -1.2341    3.4125    0.0000 N   0  0  0  0  0  0  0  0  0  0  0  0
    2.3383   -2.7750    0.0000 N   0  0  0  0  0  0  0  0  0  0  0  0
    0.1949    0.1125    0.0000 O   0  0  0  0  0  0  0  0  0  0  0  0
   -1.9486    3.8250    0.0000 O   0  0  0  0  0  0  0  0  0  0  0  0
   -0.5196    3.8250    0.0000 O   0  0  0  0  0  0  0  0  0  0  0  0
    2.3383   -3.6000    0.0000 O   0  0  0  0  0  0  0  0  0  0  0  0
    3.0527   -2.3625    0.0000 O   0  0  0  0  0  0  0  0  0  0  0  0
    6.6031    1.6500    0.0000 C   0  0  0  0  0  0  0  0  0  0  0  0
    8.0321   -0.8250    0.0000 C   0  0  0  0  0  0  0  0  0  0  0  0
    7.3176    0.4125    0.0000 C   0  0  0  0  0  0  0  0  0  0  0  0
    6.6031    0.8250    0.0000 C   0  0  0  0  0  0  0  0  0  0  0  0
    7.3176   -0.4125    0.0000 C   0  0  0  0  0  0  0  0  0  0  0  0
    5.8886   -0.4125    0.0000 C   0  0  0  0  0  0  0  0  0  0  0  0
    5.8886    0.4125    0.0000 N   0  0  0  0  0  0  0  0  0  0  0  0
    6.6031   -0.8250    0.0000 N   0  0  0  0  0  0  0  0  0  0  0  0
    5.1742   -0.8250    0.0000 O   0  0  0  0  0  0  0  0  0  0  0  0
  5  1  1  0  0  0  0
  6  2  2  0  0  0  0
  7  3  1  0  0  0  0
  8  4  2  0  0  0  0
  9  1  2  0  0  0  0
  9  2  1  0  0  0  0
 10  3  2  0  0  0  0
 10  4  1  0  0  0  0
 11  5  2  0  0  0  0
 11  6  1  0  0  0  0
 12  7  2  0  0  0  0
 12  8  1  0  0  0  0
 14  9  1  0  0  0  0
 14 13  1  0  0  0  0
 15 10  1  0  0  0  0
 15 13  1  0  0  0  0
 16 11  1  0  0  0  0
 17 12  1  0  0  0  0
 18 13  2  0  0  0  0
 19 16  2  0  0  0  0
 20 16  2  0  0  0  0
 21 17  2  0  0  0  0
 22 17  2  0  0  0  0
 26 23  1  0  0  0  0
 26 25  2  0  0  0  0
 27 24  1  0  0  0  0
 27 25  1  0  0  0  0
 29 26  1  0  0  0  0
 29 28  2  0  0  0  0
 30 27  2  0  0  0  0
 30 28  1  0  0  0  0
 31 28  1  0  0  0  0
M  END
>  <type>
InChI

$$$$
folpet
 OpenBabel03171423152D

 16 17  0  0  0  0  0  0  0  0999 V2000
   -2.2784   -2.1269    0.0000 Cl  0  0  0  0  0  0  0  0  0  0  0  0
   -1.8659   -1.4124    0.0000 C   0  0  0  0  0  0  0  0  0  0  0  0
   -1.1515   -1.8249    0.0000 Cl  0  0  0  0  0  0  0  0  0  0  0  0
   -2.5804   -0.9999    0.0000 Cl  0  0  0  0  0  0  0  0  0  0  0  0
   -1.4534   -0.6979    0.0000 S   0  0  0  0  0  0  0  0  0  0  0  0
   -0.6284   -0.6979    0.0000 N   0  0  0  0  0  0  0  0  0  0  0  0
   -0.1435   -1.3654    0.0000 C   0  0  0  0  0  0  0  0  0  0  0  0
   -0.3984   -2.1500    0.0000 O   0  0  0  0  0  0  0  0  0  0  0  0
    0.6411   -1.1104    0.0000 C   0  0  0  0  0  0  0  0  0  0  0  0
    0.6411   -0.2854    0.0000 C   0  0  0  0  0  0  0  0  0  0  0  0
    1.3556    0.1271    0.0000 C   0  0  0  0  0  0  0  0  0  0  0  0
    2.0701   -0.2854    0.0000 C   0  0  0  0  0  0  0  0  0  0  0  0
    2.0701   -1.1104    0.0000 C   0  0  0  0  0  0  0  0  0  0  0  0
    1.3556   -1.5229    0.0000 C   0  0  0  0  0  0  0  0  0  0  0  0
   -0.1435   -0.0305    0.0000 C   0  0  0  0  0  0  0  0  0  0  0  0
   -0.3984    0.7541    0.0000 O   0  0  0  0  0  0  0  0  0  0  0  0
  1  2  1  0  0  0  0
  2  3  1  0  0  0  0
  2  4  1  0  0  0  0
  2  5  1  0  0  0  0
  5  6  1  0  0  0  0
  6  7  1  0  0  0  0
  6 15  1  0  0  0  0
  7  8  2  0  0  0  0
  7  9  1  0  0  0  0
  9 10  2  0  0  0  0
  9 14  1  0  0  0  0
 10 11  1  0  0  0  0
 10 15  1  0  0  0  0
 11 12  2  0  0  0  0
 12 13  1  0  0  0  0
 13 14  2  0  0  0  0
 15 16  2  0  0  0  0
M  END
$$$$
Oxytetracycline
 OpenBabel03171423152D

 33 36  0  0  1  0  0  0  0  0999 V2000
    2.1434   -5.3625    0.0000 C   0  0  0  0  0  0  0  0  0  0  0  0
    2.8579   -4.9500    0.0000 N   0  0  0  0  0  0  0  0  0  0  0  0
    3.5724   -5.3625    0.0000 C   0  0  0  0  0  0  0  0  0  0  0  0
    2.8579   -4.1250    0.0000 C   0  0  1  0  0  0  0  0  0  0  0  0
    3.5724   -3.7125    0.0000 C   0  0  2  0  0  0  0  0  0  0  0  0
    4.2868   -4.1250    0.0000 C   0  0  1  0  0  0  0  0  0  0  0  0
    4.2868   -4.9500    0.0000 O   0  0  0  0  0  0  0  0  0  0  0  0
    5.0013   -3.7125    0.0000 C   0  0  1  0  0  0  0  0  0  0  0  0
    5.0013   -2.8875    0.0000 C   0  0  0  0  0  0  0  0  0  0  0  0
    5.7158   -2.4750    0.0000 C   0  0  0  0  0  0  0  0  0  0  0  0
    5.7158   -1.6500    0.0000 O   0  0  0  0  0  0  0  0  0  0  0  0
    6.4302   -2.8875    0.0000 C   0  0  0  0  0  0  0  0  0  0  0  0
    7.1447   -2.4750    0.0000 C   0  0  0  0  0  0  0  0  0  0  0  0
    7.1447   -1.6500    0.0000 O   0  0  0  0  0  0  0  0  0  0  0  0
    7.8592   -2.8875    0.0000 C   0  0  0  0  0  0  0  0  0  0  0  0
    7.8592   -3.7125    0.0000 C   0  0  0  0  0  0  0  0  0  0  0  0
    7.1447   -4.1250    0.0000 C   0  0  0  0  0  0  0  0  0  0  0  0
    6.4302   -3.7125    0.0000 C   0  0  0  0  0  0  0  0  0  0  0  0
    5.7158   -4.1250    0.0000 C   0  0  2  0  0  0  0  0  0  0  0  0
    6.1031   -4.8534    0.0000 C   0  0  0  0  0  0  0  0  0  0  0  0
    5.3285   -4.8534    0.0000 O   0  0  0  0  0  0  0  0  0  0  0  0
    4.2868   -2.4750    0.0000 C   0  0  0  0  0  0  0  0  0  0  0  0
    4.2868   -1.6500    0.0000 O   0  0  0  0  0  0  0  0  0  0  0  0
    3.5724   -2.8875    0.0000 C   0  0  1  0  0  0  0  0  0  0  0  0
    3.5724   -2.0625    0.0000 O   0  0  0  0  0  0  0  0  0  0  0  0
    2.8579   -2.4750    0.0000 C   0  0  0  0  0  0  0  0  0  0  0  0
    2.8579   -1.6500    0.0000 O   0  0  0  0  0  0  0  0  0  0  0  0
    2.1434   -2.8875    0.0000 C   0  0  0  0  0  0  0  0  0  0  0  0
    1.4289   -2.4750    0.0000 C   0  0  0  0  0  0  0  0  0  0  0  0
    0.7145   -2.8875    0.0000 N   0  0  0  0  0  0  0  0  0  0  0  0
    1.4289   -1.6500    0.0000 O   0  0  0  0  0  0  0  0  0  0  0  0
    2.1434   -3.7125    0.0000 C   0  0  0  0  0  0  0  0  0  0  0  0
    1.4289   -4.1250    0.0000 O   0  0  0  0  0  0  0  0  0  0  0  0
  1  2  1  0  0  0  0
  2  3  1  0  0  0  0
  4  2  1  6  0  0  0
  4 32  1  0  0  0  0
  5  4  1  1  0  0  0
  5  6  1  0  0  0  0
  5 24  1  0  0  0  0
  6  7  1  6  0  0  0
  6  8  1  0  0  0  0
  8  9  1  1  0  0  0
  8 19  1  0  0  0  0
  9 10  1  0  0  0  0
  9 22  2  0  0  0  0
 10 11  2  0  0  0  0
 10 12  1  0  0  0  0
 12 13  2  0  0  0  0
 12 18  1  0  0  0  0
 13 14  1  0  0  0  0
 13 15  1  0  0  0  0
 15 16  2  0  0  0  0
 16 17  1  0  0  0  0
 17 18  2  0  0  0  0
 18 19  1  0  0  0  0
 19 20  1  6  0  0  0
 19 21  1  0  0  0  0
 22 23  1  0  0  0  0
 22 24  1  0  0  0  0
 24 25  1  6  0  0  0
 24 26  1  0  0  0  0
 26 27  2  0  0  0  0
 26 28  1  0  0  0  0
 28 29  1  0  0  0  0
 28 32  2  0  0  0  0
 29 30  1  0  0  0  0
 29 31  2  0  0  0  0
 32 33  1  0  0  0  0
M  END
$$$$
benzoate
 OpenBabel03171423152D

  9  9  0  0  0  0  0  0  0  0999 V2000
    0.0000    2.4750    0.0000 O   0  5  0  0  0  0  0  0  0  0  0  0
    0.7145    2.0625    0.0000 C   0  0  0  0  0  0  0  0  0  0  0  0
    1.4289    2.4750    0.0000 O   0  0  0  0  0  0  0  0  0  0  0  0
    0.7145    1.2375    0.0000 C   0  0  0  0  0  0  0  0  0  0  0  0
    1.4289    0.8250    0.0000 C   0  0  0  0  0  0  0  0  0  0  0  0
    1.4289   -0.0000    0.0000 C   0  0  0  0  0  0  0  0  0  0  0  0
    0.7145   -0.4125    0.0000 C   0  0  0  0  0  0  0  0  0  0  0  0
    0.0000    0.0000    0.0000 C   0  0  0  0  0  0  0  0  0  0  0  0
    0.0000    0.8250    0.0000 C   0  0  0  0  0  0  0  0  0  0  0  0
  1  2  1  0  0  0  0
  2  3  2  0  0  0  0
  2  4  1  0  0  0  0
  4  5  2  0  0  0  0
  4  9  1  0  0  0  0
  5  6  1  0  0  0  0
  6  7  2  0  0  0  0
  7  8  1  0  0  0  0
  8  9  2  0  0  0  0
M  CHG  1   1  -1
M  END
$$$$
phosphate
 OpenBabel03171423152D

  5  4  0  0  0  0  0  0  0  0999 V2000
    0.8250   -0.8250    0.0000 O   0  5  0  0  0  0  0  0  0  0  0  0
    0.8250    0.0000    0.0000 P   0  0  0  0  0  0  0  0  0  0  0  0
    0.8250    0.8250    0.0000 O   0  5  0  0  0  0  0  0  0  0  0  0
    1.6500   -0.0000    0.0000 O   0  5  0  0  0  0  0  0  0  0  0  0
    0.0000    0.0000    0.0000 O   0  0  0  0  0  0  0  0  0  0  0  0
  1  2  1  0  0  0  0
  2  3  1  0  0  0  0
  2  4  1  0  0  0  0
  2  5  2  0  0  0  0
M  CHG  3   1  -1   3  -1   4  -1
M  END
$$$$
flumioxazin
 OpenBabel03171423152D

 26 29  0  0  0  0  0  0  0  0999 V2000
   -3.5635   -0.5720    0.0000 F   0  0  0  0  0  0  0  0  0  0  0  0
   -3.9760   -1.2864    0.0000 C   0  0  0  0  0  0  0  0  0  0  0  0
   -4.8010   -1.2864    0.0000 C   0  0  0  0  0  0  0  0  0  0  0  0
   -5.2135   -2.0009    0.0000 C   0  0  0  0  0  0  0  0  0  0  0  0
   -4.8010   -2.7154    0.0000 C   0  0  0  0  0  0  0  0  0  0  0  0
   -3.9760   -2.7154    0.0000 C   0  0  0  0  0  0  0  0  0  0  0  0
   -3.5635   -2.0009    0.0000 C   0  0  0  0  0  0  0  0  0  0  0  0
   -2.7385   -2.0009    0.0000 N   0  0  0  0  0  0  0  0  0  0  0  0
   -2.2536   -2.6683    0.0000 C   0  0  0  0  0  0  0  0  0  0  0  0
   -2.5085   -3.4530    0.0000 O   0  0  0  0  0  0  0  0  0  0  0  0
   -1.4689   -2.4134    0.0000 C   0  0  0  0  0  0  0  0  0  0  0  0
   -1.4689   -1.5884    0.0000 C   0  0  0  0  0  0  0  0  0  0  0  0
   -0.7545   -1.1759    0.0000 C   0  0  0  0  0  0  0  0  0  0  0  0
   -0.0400   -1.5884    0.0000 C   0  0  0  0  0  0  0  0  0  0  0  0
   -0.0400   -2.4134    0.0000 C   0  0  0  0  0  0  0  0  0  0  0  0
   -0.7545   -2.8259    0.0000 C   0  0  0  0  0  0  0  0  0  0  0  0
   -2.2536   -1.3335    0.0000 C   0  0  0  0  0  0  0  0  0  0  0  0
   -2.5085   -0.5488    0.0000 O   0  0  0  0  0  0  0  0  0  0  0  0
   -5.2135   -3.4298    0.0000 N   0  0  0  0  0  0  0  0  0  0  0  0
   -4.8010   -4.1443    0.0000 C   0  0  0  0  0  0  0  0  0  0  0  0
   -3.9760   -4.1443    0.0000 C   0  0  0  0  0  0  0  0  0  0  0  0
   -3.1510   -4.1443    0.0000 C   0  0  0  0  0  0  0  0  0  0  0  0
   -6.0385   -3.4298    0.0000 C   0  0  0  0  0  0  0  0  0  0  0  0
   -6.4510   -4.1443    0.0000 O   0  0  0  0  0  0  0  0  0  0  0  0
   -6.4510   -2.7154    0.0000 C   0  0  0  0  0  0  0  0  0  0  0  0
   -6.0385   -2.0009    0.0000 O   0  0  0  0  0  0  0  0  0  0  0  0
  1  2  1  0  0  0  0
  2  3  2  0  0  0  0
  2  7  1  0  0  0  0
  3  4  1  0  0  0  0
  4  5  2  0  0  0  0
  4 26  1  0  0  0  0
  5  6  1  0  0  0  0
  5 19  1  0  0  0  0
  6  7  2  0  0  0  0
  7  8  1  0  0  0  0
  8  9  1  0  0  0  0
  8 17  1  0  0  0  0
  9 10  2  0  0  0  0
  9 11  1  0  0  0  0
 11 12  2  0  0  0  0
 11 16  1  0  0  0  0
 12 13  1  0  0  0  0
 12 17  1  0  0  0  0
 13 14  1  0  0  0  0
 14 15  1  0  0  0  0
 15 16  1  0  0  0  0
 17 18  2  0  0  0  0
 19 20  1  0  0  0  0
 19 23  1  0  0  0  0
 20 21  1  0  0  0  0
 21 22  3  0  0  0  0
 23 24  2  0  0  0  0
 23 25  1  0  0  0  0
 25 26  1  0  0  0  0
M  END
$$$$
Chlorite
 OpenBabel03171423152D

  3  2  0  0  0  0  0  0  0  0999 V2000
    1.6500   -0.0000    0.0000 O   0  5  0  0  0  0  0  0  0  0  0  0
    2.4750   -0.0000    0.0000 Cl  0  0  0  0  0  0  0  0  0  0  0  0
    3.3000    0.0000    0.0000 O   0  0  0  0  0  0  0  0  0  0  0  0
  1  2  1  0  0  0  0
  2  3  2  0  0  0  0
M  CHG  1   1  -1
M  END
$$$$
Mancozeb
 OpenBabel03171423152D

 22 18  0  0  0  0  0  0  0  0999 V2000
    0.0000    0.0000    0.0000 Mn  0  2  0  0  0 15  0  0  0  0  0  0
    1.1196    0.0000    0.0000 Zn  0  2  0  0  0 15  0  0  0  0  0  0
   -2.5006   -2.8875    0.0000 S   0  5  0  0  0  0  0  0  0  0  0  0
   -1.7862   -2.4750    0.0000 C   0  0  0  0  0  0  0  0  0  0  0  0
   -1.7862   -1.6500    0.0000 S   0  0  0  0  0  0  0  0  0  0  0  0
   -1.0717   -2.8875    0.0000 N   0  0  0  0  0  0  0  0  0  0  0  0
   -0.3572   -2.4750    0.0000 C   0  0  0  0  0  0  0  0  0  0  0  0
    0.3572   -2.8875    0.0000 C   0  0  0  0  0  0  0  0  0  0  0  0
    1.0717   -2.4750    0.0000 N   0  0  0  0  0  0  0  0  0  0  0  0
    1.7862   -2.8875    0.0000 C   0  0  0  0  0  0  0  0  0  0  0  0
    2.5006   -2.4750    0.0000 S   0  5  0  0  0  0  0  0  0  0  0  0
    1.7862   -3.7125    0.0000 S   0  0  0  0  0  0  0  0  0  0  0  0
    4.6221   -2.8875    0.0000 S   0  5  0  0  0  0  0  0  0  0  0  0
    5.3365   -2.4750    0.0000 C   0  0  0  0  0  0  0  0  0  0  0  0
    5.3365   -1.6500    0.0000 S   0  0  0  0  0  0  0  0  0  0  0  0
    6.0510   -2.8875    0.0000 N   0  0  0  0  0  0  0  0  0  0  0  0
    6.7655   -2.4750    0.0000 C   0  0  0  0  0  0  0  0  0  0  0  0
    7.4800   -2.8875    0.0000 C   0  0  0  0  0  0  0  0  0  0  0  0
    8.1944   -2.4750    0.0000 N   0  0  0  0  0  0  0  0  0  0  0  0
    8.9089   -2.8875    0.0000 C   0  0  0  0  0  0  0  0  0  0  0  0
    9.6234   -2.4750    0.0000 S   0  5  0  0  0  0  0  0  0  0  0  0
    8.9089   -3.7125    0.0000 S   0  0  0  0  0  0  0  0  0  0  0  0
  3  4  1  0  0  0  0
  4  5  2  0  0  0  0
  4  6  1  0  0  0  0
  6  7  1  0  0  0  0
  7  8  1  0  0  0  0
  8  9  1  0  0  0  0
  9 10  1  0  0  0  0
 10 11  1  0  0  0  0
 10 12  2  0  0  0  0
 13 14  1  0  0  0  0
 14 15  2  0  0  0  0
 14 16  1  0  0  0  0
 16 17  1  0  0  0  0
 17 18  1  0  0  0  0
 18 19  1  0  0  0  0
 19 20  1  0  0  0  0
 20 21  1  0  0  0  0
 20 22  2  0  0  0  0
M  CHG  6   1   2   2   2   3  -1  11  -1  13  -1  21  -1
M  END
$$$$
3-Methyl-but-2-enoic acid
 OpenBabel03171423152D

  7  6  0  0  0  0  0  0  0  0999 V2000
    1.2375    0.7145    0.0000 C   0  0  0  0  0  0  0  0  0  0  0  0
    0.8250    0.0000    0.0000 C   0  0  0  0  0  0  0  0  0  0  0  0
    1.2375   -0.7145    0.0000 C   0  0  0  0  0  0  0  0  0  0  0  0
    0.0000    0.0000    0.0000 C   0  0  0  0  0  0  0  0  0  0  0  0
   -0.4125   -0.7145    0.0000 C   0  0  0  0  0  0  0  0  0  0  0  0
    0.0000   -1.4289    0.0000 O   0  0  0  0  0  0  0  0  0  0  0  0
   -1.2375   -0.7145    0.0000 O   0  0  0  0  0  0  0  0  0  0  0  0
  1  2  1  0  0  0  0
  2  3  1  0  0  0  0
  2  4  2  0  0  0  0
  4  5  1  0  0  0  0
  5  6  1  0  0  0  0
  5  7  2  0  0  0  0
M  END
$$$$
Stam
 OpenBabel03171423152D

 13 13  0  0  0  0  0  0  0  0999 V2000
   -0.7145    3.7125    0.0000 C   0  0  0  0  0  0  0  0  0  0  0  0
    0.0000    3.3000    0.0000 C   0  0  0  0  0  0  0  0  0  0  0  0
    0.0000    2.4750    0.0000 C   0  0  0  0  0  0  0  0  0  0  0  0
   -0.7145    2.0625    0.0000 O   0  0  0  0  0  0  0  0  0  0  0  0
    0.7145    2.0625    0.0000 N   0  0  0  0  0  0  0  0  0  0  0  0
    0.7145    1.2375    0.0000 C   0  0  0  0  0  0  0  0  0  0  0  0
    1.4289    0.8250    0.0000 C   0  0  0  0  0  0  0  0  0  0  0  0
    1.4289   -0.0000    0.0000 C   0  0  0  0  0  0  0  0  0  0  0  0
    0.7145   -0.4125    0.0000 C   0  0  0  0  0  0  0  0  0  0  0  0
    0.7145   -1.2375    0.0000 Cl  0  0  0  0  0  0  0  0  0  0  0  0
    0.0000    0.0000    0.0000 C   0  0  0  0  0  0  0  0  0  0  0  0
   -0.7145   -0.4125    0.0000 Cl  0  0  0  0  0  0  0  0  0  0  0  0
    0.0000    0.8250    0.0000 C   0  0  0  0  0  0  0  0  0  0  0  0
  1  2  1  0  0  0  0
  2  3  1  0  0  0  0
  3  4  1  0  0  0  0
  3  5  2  3  0  0  0
  5  6  1  0  0  0  0
  6  7  2  0  0  0  0
  6 13  1  0  0  0  0
  7  8  1  0  0  0  0
  8  9  2  0  0  0  0
  9 10  1  0  0  0  0
  9 11  1  0  0  0  0
 11 12  1  0  0  0  0
 11 13  2  0  0  0  0
M  END
>  <type>
common

$$$$
farnesol
 OpenBabel03171423152D

 16 15  0  0  0  0  0  0  0  0999 V2000
    6.1875    3.5724    0.0000 C   0  0  0  0  0  0  0  0  0  0  0  0
    5.7750    2.8579    0.0000 C   0  0  0  0  0  0  0  0  0  0  0  0
    6.1875    2.1434    0.0000 C   0  0  0  0  0  0  0  0  0  0  0  0
    4.9500    2.8579    0.0000 C   0  0  0  0  0  0  0  0  0  0  0  0
    4.5375    2.1434    0.0000 C   0  0  0  0  0  0  0  0  0  0  0  0
    3.7125    2.1434    0.0000 C   0  0  0  0  0  0  0  0  0  0  0  0
    3.3000    1.4289    0.0000 C   0  0  0  0  0  0  0  0  0  0  0  0
    3.7125    0.7145    0.0000 C   0  0  0  0  0  0  0  0  0  0  0  0
    2.4750    1.4289    0.0000 C   0  0  0  0  0  0  0  0  0  0  0  0
    2.0625    0.7145    0.0000 C   0  0  0  0  0  0  0  0  0  0  0  0
    1.2375    0.7145    0.0000 C   0  0  0  0  0  0  0  0  0  0  0  0
    0.8250    0.0000    0.0000 C   0  0  0  0  0  0  0  0  0  0  0  0
    1.2375   -0.7145    0.0000 C   0  0  0  0  0  0  0  0  0  0  0  0
    0.0000    0.0000    0.0000 C   0  0  0  0  0  0  0  0  0  0  0  0
   -0.4125   -0.7145    0.0000 C   0  0  0  0  0  0  0  0  0  0  0  0
    0.0000   -1.4289    0.0000 O   0  0  0  0  0  0  0  0  0  0  0  0
  1  2  1  0  0  0  0
  2  3  1  0  0  0  0
  2  4  2  0  0  0  0
  4  5  1  0  0  0  0
  5  6  1  0  0  0  0
  6  7  1  0  0  0  0
  7  8  1  0  0  0  0
  7  9  2  3  0  0  0
  9 10  1  0  0  0  0
 10 11  1  0  0  0  0
 11 12  1  0  0  0  0
 12 13  1  0  0  0  0
 12 14  2  3  0  0  0
 14 15  1  0  0  0  0
 15 16  1  0  0  0  0
M  END
$$$$
S-bioallethrin
 OpenBabel03171423152D

 22 23  0  0  1  0  0  0  0  0999 V2000
    3.4456   -3.5409    0.0000 C   0  0  0  0  0  0  0  0  0  0  0  0
    2.7311   -3.1284    0.0000 C   0  0  0  0  0  0  0  0  0  0  0  0
    2.7311   -2.3034    0.0000 C   0  0  0  0  0  0  0  0  0  0  0  0
    2.0166   -3.5409    0.0000 C   0  0  0  0  0  0  0  0  0  0  0  0
    1.3022   -3.1284    0.0000 C   0  0  2  0  0  0  0  0  0  0  0  0
    0.4772   -3.1284    0.0000 C   0  0  1  0  0  0  0  0  0  0  0  0
   -0.2373   -3.5409    0.0000 C   0  0  0  0  0  0  0  0  0  0  0  0
   -0.2373   -4.3659    0.0000 O   0  0  0  0  0  0  0  0  0  0  0  0
   -0.9518   -3.1284    0.0000 O   0  0  0  0  0  0  0  0  0  0  0  0
   -1.6663   -3.5409    0.0000 C   0  0  1  0  0  0  0  0  0  0  0  0
   -1.7525   -4.3614    0.0000 C   0  0  0  0  0  0  0  0  0  0  0  0
   -2.5595   -4.5329    0.0000 C   0  0  0  0  0  0  0  0  0  0  0  0
   -2.8950   -5.2866    0.0000 O   0  0  0  0  0  0  0  0  0  0  0  0
   -2.9720   -3.8185    0.0000 C   0  0  0  0  0  0  0  0  0  0  0  0
   -3.7924   -3.7322    0.0000 C   0  0  0  0  0  0  0  0  0  0  0  0
   -4.1280   -2.9786    0.0000 C   0  0  0  0  0  0  0  0  0  0  0  0
   -4.9485   -2.8923    0.0000 C   0  0  0  0  0  0  0  0  0  0  0  0
   -2.4199   -3.2054    0.0000 C   0  0  0  0  0  0  0  0  0  0  0  0
   -2.5915   -2.3984    0.0000 C   0  0  0  0  0  0  0  0  0  0  0  0
    0.8897   -2.4140    0.0000 C   0  0  0  0  0  0  0  0  0  0  0  0
    0.4165   -1.7382    0.0000 C   0  0  0  0  0  0  0  0  0  0  0  0
    1.3629   -1.7382    0.0000 C   0  0  0  0  0  0  0  0  0  0  0  0
  1  2  1  0  0  0  0
  2  3  1  0  0  0  0
  2  4  2  0  0  0  0
  5  4  1  6  0  0  0
  5  6  1  0  0  0  0
  5 20  1  0  0  0  0
  6  7  1  1  0  0  0
  6 20  1  0  0  0  0
  7  8  2  0  0  0  0
  7  9  1  0  0  0  0
 10  9  1  1  0  0  0
 10 11  1  0  0  0  0
 10 18  1  0  0  0  0
 11 12  1  0  0  0  0
 12 13  2  0  0  0  0
 12 14  1  0  0  0  0
 14 15  1  0  0  0  0
 14 18  2  0  0  0  0
 15 16  1  0  0  0  0
 16 17  2  0  0  0  0
 18 19  1  0  0  0  0
 20 21  1  0  0  0  0
 20 22  1  0  0  0  0
M  END
>  <type>
common

$$$$
Ammonium hydrogen carbonate
 OpenBabel03171423152D

  5  3  0  0  0  0  0  0  0  0999 V2000
    0.0000    0.0000    0.0000 N   0  3  0  0  0  0  0  0  0  0  0  0
    3.2411    0.7145    0.0000 O   0  0  0  0  0  0  0  0  0  0  0  0
    2.8286   -0.0000    0.0000 C   0  0  0  0  0  0  0  0  0  0  0  0
    3.2411   -0.7145    0.0000 O   0  5  0  0  0  0  0  0  0  0  0  0
    2.0036   -0.0000    0.0000 O   0  0  0  0  0  0  0  0  0  0  0  0
  2  3  1  0  0  0  0
  3  4  1  0  0  0  0
  3  5  2  0  0  0  0
M  CHG  2   1   1   4  -1
M  END
$$$$
terbuthylazine
 OpenBabel03171423152D

 15 15  0  0  0  0  0  0  0  0999 V2000
    0.0000    3.3000    0.0000 C   0  0  0  0  0  0  0  0  0  0  0  0
    0.0000    2.4750    0.0000 C   0  0  0  0  0  0  0  0  0  0  0  0
    0.7145    2.0625    0.0000 N   0  0  0  0  0  0  0  0  0  0  0  0
    0.7145    1.2375    0.0000 C   0  0  0  0  0  0  0  0  0  0  0  0
    1.4289    0.8250    0.0000 N   0  0  0  0  0  0  0  0  0  0  0  0
    1.4289   -0.0000    0.0000 C   0  0  0  0  0  0  0  0  0  0  0  0
    2.1434   -0.4125    0.0000 N   0  0  0  0  0  0  0  0  0  0  0  0
    2.8579   -0.0000    0.0000 C   0  0  0  0  0  0  0  0  0  0  0  0
    3.5724    0.4125    0.0000 C   0  0  0  0  0  0  0  0  0  0  0  0
    3.2704   -0.7145    0.0000 C   0  0  0  0  0  0  0  0  0  0  0  0
    2.4454    0.7145    0.0000 C   0  0  0  0  0  0  0  0  0  0  0  0
    0.7145   -0.4125    0.0000 N   0  0  0  0  0  0  0  0  0  0  0  0
    0.0000    0.0000    0.0000 C   0  0  0  0  0  0  0  0  0  0  0  0
   -0.7145   -0.4125    0.0000 Cl  0  0  0  0  0  0  0  0  0  0  0  0
    0.0000    0.8250    0.0000 N   0  0  0  0  0  0  0  0  0  0  0  0
  1  2  1  0  0  0  0
  2  3  1  0  0  0  0
  3  4  1  0  0  0  0
  4  5  2  0  0  0  0
  4 15  1  0  0  0  0
  5  6  1  0  0  0  0
  6  7  1  0  0  0  0
  6 12  2  0  0  0  0
  7  8  1  0  0  0  0
  8  9  1  0  0  0  0
  8 10  1  0  0  0  0
  8 11  1  0  0  0  0
 12 13  1  0  0  0  0
 13 14  1  0  0  0  0
 13 15  2  0  0  0  0
M  END
$$$$
4-(2-nitrobutyl)morpholine
 OpenBabel03171423152D

 13 13  0  0  0  0  0  0  0  0999 V2000
   -0.7145    3.7125    0.0000 C   0  0  0  0  0  0  0  0  0  0  0  0
    0.0000    3.3000    0.0000 C   0  0  0  0  0  0  0  0  0  0  0  0
    0.0000    2.4750    0.0000 C   0  0  3  0  0  0  0  0  0  0  0  0
    0.7145    2.0625    0.0000 C   0  0  0  0  0  0  0  0  0  0  0  0
    0.7145    1.2375    0.0000 N   0  0  0  0  0  0  0  0  0  0  0  0
    1.4289    0.8250    0.0000 C   0  0  0  0  0  0  0  0  0  0  0  0
    1.4289   -0.0000    0.0000 C   0  0  0  0  0  0  0  0  0  0  0  0
    0.7145   -0.4125    0.0000 O   0  0  0  0  0  0  0  0  0  0  0  0
    0.0000    0.0000    0.0000 C   0  0  0  0  0  0  0  0  0  0  0  0
    0.0000    0.8250    0.0000 C   0  0  0  0  0  0  0  0  0  0  0  0
   -0.7145    2.0625    0.0000 N   0  3  0  0  0  0  0  0  0  0  0  0
   -0.7145    1.2375    0.0000 O   0  5  0  0  0  0  0  0  0  0  0  0
   -1.4289    2.4750    0.0000 O   0  0  0  0  0  0  0  0  0  0  0  0
  1  2  1  0  0  0  0
  2  3  1  0  0  0  0
  3  4  1  0  0  0  0
  3 11  1  0  0  0  0
  4  5  1  0  0  0  0
  5  6  1  0  0  0  0
  5 10  1  0  0  0  0
  6  7  1  0  0  0  0
  7  8  1  0  0  0  0
  8  9  1  0  0  0  0
  9 10  1  0  0  0  0
 11 12  1  0  0  0  0
 11 13  2  0  0  0  0
M  CHG  2  11   1  12  -1
M  END
$$$$
tebufenozide
 OpenBabel03171423152D

 26 27  0  0  0  0  0  0  0  0999 V2000
   -1.4289   -5.7750    0.0000 C   0  0  0  0  0  0  0  0  0  0  0  0
   -1.4289   -4.9500    0.0000 C   0  0  0  0  0  0  0  0  0  0  0  0
   -0.7145   -4.5375    0.0000 C   0  0  0  0  0  0  0  0  0  0  0  0
   -0.7145   -3.7125    0.0000 C   0  0  0  0  0  0  0  0  0  0  0  0
    0.0000   -3.3000    0.0000 C   0  0  0  0  0  0  0  0  0  0  0  0
    0.7145   -3.7125    0.0000 C   0  0  0  0  0  0  0  0  0  0  0  0
    0.7145   -4.5375    0.0000 C   0  0  0  0  0  0  0  0  0  0  0  0
    0.0000   -4.9500    0.0000 C   0  0  0  0  0  0  0  0  0  0  0  0
    1.4289   -3.3000    0.0000 C   0  0  0  0  0  0  0  0  0  0  0  0
    2.1434   -3.7125    0.0000 O   0  0  0  0  0  0  0  0  0  0  0  0
    1.4289   -2.4750    0.0000 N   0  0  0  0  0  0  0  0  0  0  0  0
    2.1434   -2.0625    0.0000 N   0  0  0  0  0  0  0  0  0  0  0  0
    2.1434   -1.2375    0.0000 C   0  0  0  0  0  0  0  0  0  0  0  0
    1.4289   -0.8250    0.0000 O   0  0  0  0  0  0  0  0  0  0  0  0
    2.8579   -0.8250    0.0000 C   0  0  0  0  0  0  0  0  0  0  0  0
    2.8579    0.0000    0.0000 C   0  0  0  0  0  0  0  0  0  0  0  0
    3.5724    0.4125    0.0000 C   0  0  0  0  0  0  0  0  0  0  0  0
    3.5724    1.2375    0.0000 C   0  0  0  0  0  0  0  0  0  0  0  0
    4.2868    0.0000    0.0000 C   0  0  0  0  0  0  0  0  0  0  0  0
    4.2868   -0.8250    0.0000 C   0  0  0  0  0  0  0  0  0  0  0  0
    5.0013   -1.2375    0.0000 C   0  0  0  0  0  0  0  0  0  0  0  0
    3.5724   -1.2375    0.0000 C   0  0  0  0  0  0  0  0  0  0  0  0
    2.8579   -2.4750    0.0000 C   0  0  0  0  0  0  0  0  0  0  0  0
    2.4454   -3.1895    0.0000 C   0  0  0  0  0  0  0  0  0  0  0  0
    3.2704   -1.7605    0.0000 C   0  0  0  0  0  0  0  0  0  0  0  0
    3.5724   -2.8875    0.0000 C   0  0  0  0  0  0  0  0  0  0  0  0
  1  2  1  0  0  0  0
  2  3  1  0  0  0  0
  3  4  2  0  0  0  0
  3  8  1  0  0  0  0
  4  5  1  0  0  0  0
  5  6  2  0  0  0  0
  6  7  1  0  0  0  0
  6  9  1  0  0  0  0
  7  8  2  0  0  0  0
  9 10  2  0  0  0  0
  9 11  1  0  0  0  0
 11 12  1  0  0  0  0
 12 13  1  0  0  0  0
 12 23  1  0  0  0  0
 13 14  2  0  0  0  0
 13 15  1  0  0  0  0
 15 16  2  0  0  0  0
 15 22  1  0  0  0  0
 16 17  1  0  0  0  0
 17 18  1  0  0  0  0
 17 19  2  0  0  0  0
 19 20  1  0  0  0  0
 20 21  1  0  0  0  0
 20 22  2  0  0  0  0
 23 24  1  0  0  0  0
 23 25  1  0  0  0  0
 23 26  1  0  0  0  0
M  END
>  <type>
common

$$$$
fenamidone
 OpenBabel03171423152D

 22 24  0  0  1  0  0  0  0  0999 V2000
   -0.5338   -2.9080    0.0000 C   0  0  0  0  0  0  0  0  0  0  0  0
    0.2866   -2.9942    0.0000 S   0  0  0  0  0  0  0  0  0  0  0  0
    0.7716   -2.3268    0.0000 C   0  0  0  0  0  0  0  0  0  0  0  0
    0.5166   -1.5422    0.0000 N   0  0  0  0  0  0  0  0  0  0  0  0
    1.1841   -1.0572    0.0000 C   0  0  2  0  0  0  0  0  0  0  0  0
    0.6320   -0.4441    0.0000 C   0  0  0  0  0  0  0  0  0  0  0  0
    1.8515   -1.5422    0.0000 C   0  0  0  0  0  0  0  0  0  0  0  0
    2.6361   -1.2872    0.0000 O   0  0  0  0  0  0  0  0  0  0  0  0
    1.5966   -2.3268    0.0000 N   0  0  0  0  0  0  0  0  0  0  0  0
    2.0815   -2.9942    0.0000 N   0  0  0  0  0  0  0  0  0  0  0  0
    1.7459   -3.7479    0.0000 C   0  0  0  0  0  0  0  0  0  0  0  0
    2.2308   -4.4153    0.0000 C   0  0  0  0  0  0  0  0  0  0  0  0
    1.8953   -5.1690    0.0000 C   0  0  0  0  0  0  0  0  0  0  0  0
    1.0748   -5.2553    0.0000 C   0  0  0  0  0  0  0  0  0  0  0  0
    0.5899   -4.5878    0.0000 C   0  0  0  0  0  0  0  0  0  0  0  0
    0.9254   -3.8341    0.0000 C   0  0  0  0  0  0  0  0  0  0  0  0
    1.7361   -0.4441    0.0000 C   0  0  0  0  0  0  0  0  0  0  0  0
    1.4812    0.3405    0.0000 C   0  0  0  0  0  0  0  0  0  0  0  0
    2.0332    0.9536    0.0000 C   0  0  0  0  0  0  0  0  0  0  0  0
    2.8402    0.7820    0.0000 C   0  0  0  0  0  0  0  0  0  0  0  0
    3.0951   -0.0026    0.0000 C   0  0  0  0  0  0  0  0  0  0  0  0
    2.5431   -0.6157    0.0000 C   0  0  0  0  0  0  0  0  0  0  0  0
  1  2  1  0  0  0  0
  2  3  1  0  0  0  0
  3  4  2  0  0  0  0
  3  9  1  0  0  0  0
  4  5  1  0  0  0  0
  5  6  1  6  0  0  0
  5  7  1  0  0  0  0
  5 17  1  0  0  0  0
  7  8  2  0  0  0  0
  7  9  1  0  0  0  0
  9 10  1  0  0  0  0
 10 11  1  0  0  0  0
 11 12  2  0  0  0  0
 11 16  1  0  0  0  0
 12 13  1  0  0  0  0
 13 14  2  0  0  0  0
 14 15  1  0  0  0  0
 15 16  2  0  0  0  0
 17 18  2  0  0  0  0
 17 22  1  0  0  0  0
 18 19  1  0  0  0  0
 19 20  2  0  0  0  0
 20 21  1  0  0  0  0
 21 22  2  0  0  0  0
M  END
>  <type>
common

$$$$
triforine
 OpenBabel03171423152D

 22 22  0  0  0  0  0  0  0  0999 V2000
   -0.7145    3.7125    0.0000 O   0  0  0  0  0  0  0  0  0  0  0  0
    0.0000    3.3000    0.0000 C   0  0  0  0  0  0  0  0  0  0  0  0
    0.0000    2.4750    0.0000 N   0  0  0  0  0  0  0  0  0  0  0  0
    0.7145    2.0625    0.0000 C   0  0  3  0  0  0  0  0  0  0  0  0
    0.7145    1.2375    0.0000 N   0  0  0  0  0  0  0  0  0  0  0  0
    1.4289    0.8250    0.0000 C   0  0  0  0  0  0  0  0  0  0  0  0
    1.4289   -0.0000    0.0000 C   0  0  0  0  0  0  0  0  0  0  0  0
    0.7145   -0.4125    0.0000 N   0  0  0  0  0  0  0  0  0  0  0  0
    0.0000    0.0000    0.0000 C   0  0  0  0  0  0  0  0  0  0  0  0
    0.0000    0.8250    0.0000 C   0  0  0  0  0  0  0  0  0  0  0  0
    0.7145   -1.2375    0.0000 C   0  0  3  0  0  0  0  0  0  0  0  0
    1.4289   -1.6500    0.0000 N   0  0  0  0  0  0  0  0  0  0  0  0
    1.4289   -2.4750    0.0000 C   0  0  0  0  0  0  0  0  0  0  0  0
    2.1434   -2.8875    0.0000 O   0  0  0  0  0  0  0  0  0  0  0  0
   -0.0000   -1.6500    0.0000 C   0  0  0  0  0  0  0  0  0  0  0  0
   -0.7145   -2.0625    0.0000 Cl  0  0  0  0  0  0  0  0  0  0  0  0
    0.4125   -2.3645    0.0000 Cl  0  0  0  0  0  0  0  0  0  0  0  0
   -0.4125   -0.9355    0.0000 Cl  0  0  0  0  0  0  0  0  0  0  0  0
    1.4289    2.4750    0.0000 C   0  0  0  0  0  0  0  0  0  0  0  0
    2.1434    2.8875    0.0000 Cl  0  0  0  0  0  0  0  0  0  0  0  0
    1.8414    1.7605    0.0000 Cl  0  0  0  0  0  0  0  0  0  0  0  0
    1.0164    3.1895    0.0000 Cl  0  0  0  0  0  0  0  0  0  0  0  0
  2  1  1  0  0  0  0
  2  3  2  3  0  0  0
  3  4  1  0  0  0  0
  4  5  1  0  0  0  0
  4 19  1  0  0  0  0
  5  6  1  0  0  0  0
  5 10  1  0  0  0  0
  6  7  1  0  0  0  0
  7  8  1  0  0  0  0
  8  9  1  0  0  0  0
  8 11  1  0  0  0  0
  9 10  1  0  0  0  0
 11 12  1  0  0  0  0
 11 15  1  0  0  0  0
 12 13  2  3  0  0  0
 13 14  1  0  0  0  0
 15 16  1  0  0  0  0
 15 17  1  0  0  0  0
 15 18  1  0  0  0  0
 19 20  1  0  0  0  0
 19 21  1  0  0  0  0
 19 22  1  0  0  0  0
M  END
>  <type>
common

$$$$
potassium (potassium phosphite)
 OpenBabel03171423152D

  6  3  0  0  0  0  0  0  0  0999 V2000
    0.4125    0.7145    0.0000 O   0  5  0  0  0  0  0  0  0  0  0  0
    0.0000   -0.0000    0.0000 P   0  0  0  0  0  0  0  0  0  0  0  0
    0.4125   -0.7145    0.0000 O   0  5  0  0  0  0  0  0  0  0  0  0
   -0.8250   -0.0000    0.0000 O   0  5  0  0  0  0  0  0  0  0  0  0
    2.5339    0.0000    0.0000 K   0  3  0  0  0 15  0  0  0  0  0  0
    0.0000   -2.3645    0.0000 K   0  3  0  0  0 15  0  0  0  0  0  0
  1  2  1  0  0  0  0
  2  3  1  0  0  0  0
  2  4  1  0  0  0  0
M  CHG  5   1  -1   3  -1   4  -1   5   1   6   1
M  END
>  <type>
systematic

$$$$
cyhalofop-butyl
 OpenBabel03171423152D

 26 27  0  0  0  0  0  0  0  0999 V2000
   -5.0013   -7.0125    0.0000 C   0  0  0  0  0  0  0  0  0  0  0  0
   -4.2868   -6.6000    0.0000 C   0  0  0  0  0  0  0  0  0  0  0  0
   -3.5724   -7.0125    0.0000 C   0  0  0  0  0  0  0  0  0  0  0  0
   -2.8579   -6.6000    0.0000 C   0  0  0  0  0  0  0  0  0  0  0  0
   -2.1434   -7.0125    0.0000 O   0  0  0  0  0  0  0  0  0  0  0  0
   -1.4289   -6.6000    0.0000 C   0  0  0  0  0  0  0  0  0  0  0  0
   -1.4289   -5.7750    0.0000 O   0  0  0  0  0  0  0  0  0  0  0  0
   -0.7145   -7.0125    0.0000 C   0  0  3  0  0  0  0  0  0  0  0  0
   -0.7145   -7.8375    0.0000 C   0  0  0  0  0  0  0  0  0  0  0  0
    0.0000   -6.6000    0.0000 O   0  0  0  0  0  0  0  0  0  0  0  0
    0.7145   -7.0125    0.0000 C   0  0  0  0  0  0  0  0  0  0  0  0
    1.4289   -6.6000    0.0000 C   0  0  0  0  0  0  0  0  0  0  0  0
    2.1434   -7.0125    0.0000 C   0  0  0  0  0  0  0  0  0  0  0  0
    2.1434   -7.8375    0.0000 C   0  0  0  0  0  0  0  0  0  0  0  0
    2.8579   -8.2500    0.0000 O   0  0  0  0  0  0  0  0  0  0  0  0
    3.5724   -7.8375    0.0000 C   0  0  0  0  0  0  0  0  0  0  0  0
    3.5724   -7.0125    0.0000 C   0  0  0  0  0  0  0  0  0  0  0  0
    2.8579   -6.6000    0.0000 F   0  0  0  0  0  0  0  0  0  0  0  0
    4.2868   -6.6000    0.0000 C   0  0  0  0  0  0  0  0  0  0  0  0
    5.0013   -7.0125    0.0000 C   0  0  0  0  0  0  0  0  0  0  0  0
    5.0013   -7.8375    0.0000 C   0  0  0  0  0  0  0  0  0  0  0  0
    4.2868   -8.2500    0.0000 C   0  0  0  0  0  0  0  0  0  0  0  0
    5.7158   -6.6000    0.0000 C   0  0  0  0  0  0  0  0  0  0  0  0
    6.4302   -6.1875    0.0000 N   0  0  0  0  0  0  0  0  0  0  0  0
    1.4289   -8.2500    0.0000 C   0  0  0  0  0  0  0  0  0  0  0  0
    0.7145   -7.8375    0.0000 C   0  0  0  0  0  0  0  0  0  0  0  0
  1  2  1  0  0  0  0
  2  3  1  0  0  0  0
  3  4  1  0  0  0  0
  4  5  1  0  0  0  0
  5  6  1  0  0  0  0
  6  7  2  0  0  0  0
  6  8  1  0  0  0  0
  8  9  1  0  0  0  0
  8 10  1  0  0  0  0
 10 11  1  0  0  0  0
 11 12  2  0  0  0  0
 11 26  1  0  0  0  0
 12 13  1  0  0  0  0
 13 14  2  0  0  0  0
 14 15  1  0  0  0  0
 14 25  1  0  0  0  0
 15 16  1  0  0  0  0
 16 17  2  0  0  0  0
 16 22  1  0  0  0  0
 17 18  1  0  0  0  0
 17 19  1  0  0  0  0
 19 20  2  0  0  0  0
 20 21  1  0  0  0  0
 20 23  1  0  0  0  0
 21 22  2  0  0  0  0
 23 24  3  0  0  0  0
 25 26  2  0  0  0  0
M  END
$$$$
Fenoxycarb
 OpenBabel03171423152D

 22 23  0  0  0  0  0  0  0  0999 V2000
   -5.0013   -7.0125    0.0000 C   0  0  0  0  0  0  0  0  0  0  0  0
   -4.2868   -6.6000    0.0000 C   0  0  0  0  0  0  0  0  0  0  0  0
   -3.5724   -7.0125    0.0000 O   0  0  0  0  0  0  0  0  0  0  0  0
   -2.8579   -6.6000    0.0000 C   0  0  0  0  0  0  0  0  0  0  0  0
   -2.8579   -5.7750    0.0000 O   0  0  0  0  0  0  0  0  0  0  0  0
   -2.1434   -7.0125    0.0000 N   0  0  0  0  0  0  0  0  0  0  0  0
   -1.4289   -6.6000    0.0000 C   0  0  0  0  0  0  0  0  0  0  0  0
   -0.7145   -7.0125    0.0000 C   0  0  0  0  0  0  0  0  0  0  0  0
    0.0000   -6.6000    0.0000 O   0  0  0  0  0  0  0  0  0  0  0  0
    0.7145   -7.0125    0.0000 C   0  0  0  0  0  0  0  0  0  0  0  0
    1.4289   -6.6000    0.0000 C   0  0  0  0  0  0  0  0  0  0  0  0
    2.1434   -7.0125    0.0000 C   0  0  0  0  0  0  0  0  0  0  0  0
    2.1434   -7.8375    0.0000 C   0  0  0  0  0  0  0  0  0  0  0  0
    2.8579   -8.2500    0.0000 O   0  0  0  0  0  0  0  0  0  0  0  0
    3.5724   -7.8375    0.0000 C   0  0  0  0  0  0  0  0  0  0  0  0
    3.5724   -7.0125    0.0000 C   0  0  0  0  0  0  0  0  0  0  0  0
    4.2868   -6.6000    0.0000 C   0  0  0  0  0  0  0  0  0  0  0  0
    5.0013   -7.0125    0.0000 C   0  0  0  0  0  0  0  0  0  0  0  0
    5.0013   -7.8375    0.0000 C   0  0  0  0  0  0  0  0  0  0  0  0
    4.2868   -8.2500    0.0000 C   0  0  0  0  0  0  0  0  0  0  0  0
    1.4289   -8.2500    0.0000 C   0  0  0  0  0  0  0  0  0  0  0  0
    0.7145   -7.8375    0.0000 C   0  0  0  0  0  0  0  0  0  0  0  0
  1  2  1  0  0  0  0
  2  3  1  0  0  0  0
  3  4  1  0  0  0  0
  4  5  2  0  0  0  0
  4  6  1  0  0  0  0
  6  7  1  0  0  0  0
  7  8  1  0  0  0  0
  8  9  1  0  0  0  0
  9 10  1  0  0  0  0
 10 11  2  0  0  0  0
 10 22  1  0  0  0  0
 11 12  1  0  0  0  0
 12 13  2  0  0  0  0
 13 14  1  0  0  0  0
 13 21  1  0  0  0  0
 14 15  1  0  0  0  0
 15 16  2  0  0  0  0
 15 20  1  0  0  0  0
 16 17  1  0  0  0  0
 17 18  2  0  0  0  0
 18 19  1  0  0  0  0
 19 20  2  0  0  0  0
 21 22  2  0  0  0  0
M  END
$$$$
2,5-Pyridinedicarboxylic acid
 OpenBabel03171423152D

 12 12  0  0  0  0  0  0  0  0999 V2000
    0.0000    2.4750    0.0000 O   0  0  0  0  0  0  0  0  0  0  0  0
    0.7145    2.0625    0.0000 C   0  0  0  0  0  0  0  0  0  0  0  0
    1.4289    2.4750    0.0000 O   0  0  0  0  0  0  0  0  0  0  0  0
    0.7145    1.2375    0.0000 C   0  0  0  0  0  0  0  0  0  0  0  0
    1.4289    0.8250    0.0000 C   0  0  0  0  0  0  0  0  0  0  0  0
    1.4289   -0.0000    0.0000 N   0  0  0  0  0  0  0  0  0  0  0  0
    0.7145   -0.4125    0.0000 C   0  0  0  0  0  0  0  0  0  0  0  0
    0.0000    0.0000    0.0000 C   0  0  0  0  0  0  0  0  0  0  0  0
    0.0000    0.8250    0.0000 C   0  0  0  0  0  0  0  0  0  0  0  0
    0.7145   -1.2375    0.0000 C   0  0  0  0  0  0  0  0  0  0  0  0
    1.4289   -1.6500    0.0000 O   0  0  0  0  0  0  0  0  0  0  0  0
   -0.0000   -1.6500    0.0000 O   0  0  0  0  0  0  0  0  0  0  0  0
  1  2  1  0  0  0  0
  2  3  2  0  0  0  0
  2  4  1  0  0  0  0
  4  5  2  0  0  0  0
  4  9  1  0  0  0  0
  5  6  1  0  0  0  0
  6  7  2  0  0  0  0
  7  8  1  0  0  0  0
  7 10  1  0  0  0  0
  8  9  2  0  0  0  0
 10 11  1  0  0  0  0
 10 12  2  0  0  0  0
M  END
$$$$
imazapyr
 OpenBabel03171423152D

 19 20  0  0  0  0  0  0  0  0999 V2000
    2.0735   -0.7959    0.0000 C   0  0  0  0  0  0  0  0  0  0  0  0
    1.2665   -0.6244    0.0000 C   0  0  0  0  0  0  0  0  0  0  0  0
    1.0116    0.1602    0.0000 C   0  0  0  0  0  0  0  0  0  0  0  0
    0.7145   -1.2375    0.0000 C   0  0  3  0  0  0  0  0  0  0  0  0
    0.1624   -0.6244    0.0000 C   0  0  0  0  0  0  0  0  0  0  0  0
    1.3819   -1.7224    0.0000 N   0  0  0  0  0  0  0  0  0  0  0  0
    1.1270   -2.5070    0.0000 C   0  0  0  0  0  0  0  0  0  0  0  0
    0.3020   -2.5070    0.0000 N   0  0  0  0  0  0  0  0  0  0  0  0
    0.0470   -1.7224    0.0000 C   0  0  0  0  0  0  0  0  0  0  0  0
   -0.7376   -1.4675    0.0000 O   0  0  0  0  0  0  0  0  0  0  0  0
    1.6119   -3.1745    0.0000 C   0  0  0  0  0  0  0  0  0  0  0  0
    2.4324   -3.0882    0.0000 N   0  0  0  0  0  0  0  0  0  0  0  0
    2.9173   -3.7557    0.0000 C   0  0  0  0  0  0  0  0  0  0  0  0
    2.5817   -4.5094    0.0000 C   0  0  0  0  0  0  0  0  0  0  0  0
    1.7613   -4.5956    0.0000 C   0  0  0  0  0  0  0  0  0  0  0  0
    1.2763   -3.9282    0.0000 C   0  0  0  0  0  0  0  0  0  0  0  0
    0.4559   -4.0144    0.0000 C   0  0  0  0  0  0  0  0  0  0  0  0
   -0.0291   -3.3470    0.0000 O   0  0  0  0  0  0  0  0  0  0  0  0
    0.1203   -4.7681    0.0000 O   0  0  0  0  0  0  0  0  0  0  0  0
  1  2  1  0  0  0  0
  2  3  1  0  0  0  0
  2  4  1  0  0  0  0
  4  5  1  0  0  0  0
  4  6  1  0  0  0  0
  4  9  1  0  0  0  0
  6  7  2  0  0  0  0
  7  8  1  0  0  0  0
  7 11  1  0  0  0  0
  8  9  1  0  0  0  0
  9 10  2  0  0  0  0
 11 12  2  0  0  0  0
 11 16  1  0  0  0  0
 12 13  1  0  0  0  0
 13 14  2  0  0  0  0
 14 15  1  0  0  0  0
 15 16  2  0  0  0  0
 16 17  1  0  0  0  0
 17 18  1  0  0  0  0
 17 19  2  0  0  0  0
M  END
$$$$
ethyl bromide
 OpenBabel03171423152D

  3  2  0  0  0  0  0  0  0  0999 V2000
    1.2375   -0.7145    0.0000 C   0  0  0  0  0  0  0  0  0  0  0  0
    1.9520   -1.1270    0.0000 C   0  0  0  0  0  0  0  0  0  0  0  0
    2.6664   -0.7145    0.0000 Br  0  0  0  0  0  0  0  0  0  0  0  0
  1  2  1  0  0  0  0
  2  3  1  0  0  0  0
M  END
$$$$
maleate
 OpenBabel03171423152D

 13 13  0  0  1  0  0  0  0  0999 V2000
    2.0572    1.7262    0.0000 C   0  0  0  0  0  0  0  0  0  0  0  0
    1.2448    1.8695    0.0000 C   0  0  0  0  0  0  0  0  0  0  0  0
    0.7145    1.2375    0.0000 C   0  0  0  0  0  0  0  0  0  0  0  0
    0.1842    1.8695    0.0000 C   0  0  0  0  0  0  0  0  0  0  0  0
   -0.6283    1.7262    0.0000 C   0  0  0  0  0  0  0  0  0  0  0  0
    1.4289    0.8250    0.0000 C   0  0  0  0  0  0  0  0  0  0  0  0
    2.1434    1.2375    0.0000 O   0  0  0  0  0  0  0  0  0  0  0  0
    1.4289   -0.0000    0.0000 N   0  0  0  0  0  0  0  0  0  0  0  0
    0.7145   -0.4125    0.0000 C   0  0  0  0  0  0  0  0  0  0  0  0
    0.0000    0.0000    0.0000 C   0  0  1  0  0  0  0  0  0  0  0  0
   -0.7145   -0.4125    0.0000 C   0  0  0  0  0  0  0  0  0  0  0  0
    0.0000    0.8250    0.0000 C   0  0  0  0  0  0  0  0  0  0  0  0
   -0.7145    1.2375    0.0000 O   0  0  0  0  0  0  0  0  0  0  0  0
  1  2  1  0  0  0  0
  2  3  1  0  0  0  0
  3  4  1  0  0  0  0
  3  6  1  0  0  0  0
  3 12  1  0  0  0  0
  4  5  1  0  0  0  0
  6  7  2  0  0  0  0
  6  8  1  0  0  0  0
  8  9  1  0  0  0  0
  9 10  1  0  0  0  0
 10 11  1  1  0  0  0
 10 12  1  0  0  0  0
 12 13  2  0  0  0  0
M  END
$$$$
Dinotefuran
 OpenBabel03171423152D

 14 14  0  0  0  0  0  0  0  0999 V2000
    0.5678    4.4143    0.0000 C   0  0  0  0  0  0  0  0  0  0  0  0
    0.5678    3.5893    0.0000 N   0  0  0  0  0  0  0  0  0  0  0  0
    1.2822    3.1768    0.0000 C   0  0  0  0  0  0  0  0  0  0  0  0
    1.2822    2.3518    0.0000 N   0  0  0  0  0  0  0  0  0  0  0  0
    0.5678    1.9393    0.0000 C   0  0  0  0  0  0  0  0  0  0  0  0
    0.5678    1.1143    0.0000 C   0  0  3  0  0  0  0  0  0  0  0  0
    1.2352    0.6294    0.0000 C   0  0  0  0  0  0  0  0  0  0  0  0
    0.9803   -0.1553    0.0000 C   0  0  0  0  0  0  0  0  0  0  0  0
    0.1553   -0.1553    0.0000 O   0  0  0  0  0  0  0  0  0  0  0  0
   -0.0997    0.6294    0.0000 C   0  0  0  0  0  0  0  0  0  0  0  0
    1.9967    3.5893    0.0000 N   0  0  0  0  0  0  0  0  0  0  0  0
    1.9967    4.4143    0.0000 N   0  0  0  0  0  0  0  0  0  0  0  0
    1.2822    4.8268    0.0000 O   0  0  0  0  0  0  0  0  0  0  0  0
    2.7112    4.8268    0.0000 O   0  0  0  0  0  0  0  0  0  0  0  0
  1  2  1  0  0  0  0
  2  3  1  0  0  0  0
  3  4  1  0  0  0  0
  3 11  2  3  0  0  0
  4  5  1  0  0  0  0
  5  6  1  0  0  0  0
  6  7  1  0  0  0  0
  6 10  1  0  0  0  0
  7  8  1  0  0  0  0
  8  9  1  0  0  0  0
  9 10  1  0  0  0  0
 11 12  1  0  0  0  0
 12 13  2  0  0  0  0
 12 14  2  0  0  0  0
M  END
>  <type>
common

$$$$
n-octanoylsucrose
 OpenBabel03171423152D

 32 33  0  0  1  0  0  0  0  0999 V2000
    2.8579   -6.6000    0.0000 C   0  0  0  0  0  0  0  0  0  0  0  0
    3.5724   -6.1875    0.0000 C   0  0  0  0  0  0  0  0  0  0  0  0
    4.2868   -6.6000    0.0000 C   0  0  0  0  0  0  0  0  0  0  0  0
    5.0013   -6.1875    0.0000 C   0  0  0  0  0  0  0  0  0  0  0  0
    5.7158   -6.6000    0.0000 C   0  0  0  0  0  0  0  0  0  0  0  0
    6.4302   -6.1875    0.0000 C   0  0  0  0  0  0  0  0  0  0  0  0
    7.1447   -6.6000    0.0000 C   0  0  0  0  0  0  0  0  0  0  0  0
    7.8592   -6.1875    0.0000 C   0  0  0  0  0  0  0  0  0  0  0  0
    7.8592   -5.3625    0.0000 O   0  0  0  0  0  0  0  0  0  0  0  0
    8.5737   -6.6000    0.0000 O   0  0  0  0  0  0  0  0  0  0  0  0
    9.2881   -6.1875    0.0000 C   0  0  0  0  0  0  0  0  0  0  0  0
   10.0026   -6.6000    0.0000 C   0  0  1  0  0  0  0  0  0  0  0  0
   10.7171   -6.1875    0.0000 O   0  0  0  0  0  0  0  0  0  0  0  0
   11.4315   -6.6000    0.0000 C   0  0  2  0  0  0  0  0  0  0  0  0
   12.1460   -6.1875    0.0000 O   0  0  0  0  0  0  0  0  0  0  0  0
   12.1460   -5.3625    0.0000 C   0  0  2  0  0  0  0  0  0  0  0  0
   12.9665   -5.4487    0.0000 C   0  0  0  0  0  0  0  0  0  0  0  0
   13.4514   -4.7813    0.0000 O   0  0  0  0  0  0  0  0  0  0  0  0
   11.3255   -5.4487    0.0000 O   0  0  0  0  0  0  0  0  0  0  0  0
   10.9900   -4.6951    0.0000 C   0  0  2  0  0  0  0  0  0  0  0  0
   10.1830   -4.5235    0.0000 C   0  0  0  0  0  0  0  0  0  0  0  0
    9.6310   -5.1366    0.0000 O   0  0  0  0  0  0  0  0  0  0  0  0
   11.6031   -4.1430    0.0000 C   0  0  1  0  0  0  0  0  0  0  0  0
   11.5168   -3.3225    0.0000 O   0  0  0  0  0  0  0  0  0  0  0  0
   12.3175   -4.5555    0.0000 C   0  0  2  0  0  0  0  0  0  0  0  0
   13.0712   -4.2200    0.0000 O   0  0  0  0  0  0  0  0  0  0  0  0
   11.4315   -7.4250    0.0000 C   0  0  2  0  0  0  0  0  0  0  0  0
   12.1460   -7.8375    0.0000 O   0  0  0  0  0  0  0  0  0  0  0  0
   10.7171   -7.8375    0.0000 C   0  0  1  0  0  0  0  0  0  0  0  0
   10.7171   -8.6625    0.0000 O   0  0  0  0  0  0  0  0  0  0  0  0
   10.0026   -7.4250    0.0000 C   0  0  2  0  0  0  0  0  0  0  0  0
    9.2881   -7.8375    0.0000 O   0  0  0  0  0  0  0  0  0  0  0  0
  1  2  1  0  0  0  0
  2  3  1  0  0  0  0
  3  4  1  0  0  0  0
  4  5  1  0  0  0  0
  5  6  1  0  0  0  0
  6  7  1  0  0  0  0
  7  8  1  0  0  0  0
  8  9  2  0  0  0  0
  8 10  1  0  0  0  0
 10 11  1  0  0  0  0
 12 11  1  1  0  0  0
 12 13  1  0  0  0  0
 12 31  1  0  0  0  0
 13 14  1  0  0  0  0
 14 15  1  6  0  0  0
 14 27  1  0  0  0  0
 16 15  1  6  0  0  0
 16 17  1  0  0  0  0
 16 19  1  0  0  0  0
 16 25  1  0  0  0  0
 17 18  1  0  0  0  0
 19 20  1  0  0  0  0
 20 21  1  6  0  0  0
 20 23  1  0  0  0  0
 21 22  1  0  0  0  0
 23 24  1  1  0  0  0
 23 25  1  0  0  0  0
 25 26  1  6  0  0  0
 27 28  1  6  0  0  0
 27 29  1  0  0  0  0
 29 30  1  1  0  0  0
 29 31  1  0  0  0  0
 31 32  1  6  0  0  0
M  END
$$$$
pendimethalin
 OpenBabel03171423152D

 20 20  0  0  0  0  0  0  0  0999 V2000
    0.7145    3.7125    0.0000 C   0  0  0  0  0  0  0  0  0  0  0  0
    0.0000    3.3000    0.0000 C   0  0  0  0  0  0  0  0  0  0  0  0
    0.0000    2.4750    0.0000 C   0  0  0  0  0  0  0  0  0  0  0  0
   -0.7145    2.0625    0.0000 C   0  0  0  0  0  0  0  0  0  0  0  0
   -1.4289    2.4750    0.0000 C   0  0  0  0  0  0  0  0  0  0  0  0
    0.7145    2.0625    0.0000 N   0  0  0  0  0  0  0  0  0  0  0  0
    0.7145    1.2375    0.0000 C   0  0  0  0  0  0  0  0  0  0  0  0
    1.4289    0.8250    0.0000 C   0  0  0  0  0  0  0  0  0  0  0  0
    1.4289   -0.0000    0.0000 C   0  0  0  0  0  0  0  0  0  0  0  0
    2.1434   -0.4125    0.0000 C   0  0  0  0  0  0  0  0  0  0  0  0
    0.7145   -0.4125    0.0000 C   0  0  0  0  0  0  0  0  0  0  0  0
    0.7145   -1.2375    0.0000 C   0  0  0  0  0  0  0  0  0  0  0  0
    0.0000    0.0000    0.0000 C   0  0  0  0  0  0  0  0  0  0  0  0
    0.0000    0.8250    0.0000 C   0  0  0  0  0  0  0  0  0  0  0  0
   -0.7145    1.2375    0.0000 N   0  3  0  0  0  0  0  0  0  0  0  0
   -1.4289    0.8250    0.0000 O   0  5  0  0  0  0  0  0  0  0  0  0
   -1.1994    1.9049    0.0000 O   0  0  0  0  0  0  0  0  0  0  0  0
    2.1434    1.2375    0.0000 N   0  3  0  0  0  0  0  0  0  0  0  0
    2.1434    2.0625    0.0000 O   0  5  0  0  0  0  0  0  0  0  0  0
    2.8579    0.8250    0.0000 O   0  0  0  0  0  0  0  0  0  0  0  0
  1  2  1  0  0  0  0
  2  3  1  0  0  0  0
  3  4  1  0  0  0  0
  3  6  1  0  0  0  0
  4  5  1  0  0  0  0
  6  7  1  0  0  0  0
  7  8  2  0  0  0  0
  7 14  1  0  0  0  0
  8  9  1  0  0  0  0
  8 18  1  0  0  0  0
  9 10  1  0  0  0  0
  9 11  2  0  0  0  0
 11 12  1  0  0  0  0
 11 13  1  0  0  0  0
 13 14  2  0  0  0  0
 14 15  1  0  0  0  0
 15 16  1  0  0  0  0
 15 17  2  0  0  0  0
 18 19  1  0  0  0  0
 18 20  2  0  0  0  0
M  CHG  4  15   1  16  -1  18   1  19  -1
M  END
$$$$
Prallethrin
 OpenBabel03171423152D

 22 23  0  0  0  0  0  0  0  0999 V2000
    3.4456   -3.5409    0.0000 C   0  0  0  0  0  0  0  0  0  0  0  0
    2.7311   -3.1284    0.0000 C   0  0  0  0  0  0  0  0  0  0  0  0
    2.7311   -2.3034    0.0000 C   0  0  0  0  0  0  0  0  0  0  0  0
    2.0166   -3.5409    0.0000 C   0  0  0  0  0  0  0  0  0  0  0  0
    1.3022   -3.1284    0.0000 C   0  0  3  0  0  0  0  0  0  0  0  0
    0.4772   -3.1284    0.0000 C   0  0  3  0  0  0  0  0  0  0  0  0
   -0.2373   -3.5409    0.0000 C   0  0  0  0  0  0  0  0  0  0  0  0
   -0.2373   -4.3659    0.0000 O   0  0  0  0  0  0  0  0  0  0  0  0
   -0.9518   -3.1284    0.0000 O   0  0  0  0  0  0  0  0  0  0  0  0
   -1.6663   -3.5409    0.0000 C   0  0  3  0  0  0  0  0  0  0  0  0
   -1.7525   -4.3614    0.0000 C   0  0  0  0  0  0  0  0  0  0  0  0
   -2.5595   -4.5329    0.0000 C   0  0  0  0  0  0  0  0  0  0  0  0
   -2.8950   -5.2866    0.0000 O   0  0  0  0  0  0  0  0  0  0  0  0
   -2.9720   -3.8185    0.0000 C   0  0  0  0  0  0  0  0  0  0  0  0
   -3.7924   -3.7322    0.0000 C   0  0  0  0  0  0  0  0  0  0  0  0
   -4.2774   -4.3997    0.0000 C   0  0  0  0  0  0  0  0  0  0  0  0
   -4.7623   -5.0671    0.0000 C   0  0  0  0  0  0  0  0  0  0  0  0
   -2.4199   -3.2054    0.0000 C   0  0  0  0  0  0  0  0  0  0  0  0
   -2.5915   -2.3984    0.0000 C   0  0  0  0  0  0  0  0  0  0  0  0
    0.8897   -2.4140    0.0000 C   0  0  0  0  0  0  0  0  0  0  0  0
    0.4165   -1.7382    0.0000 C   0  0  0  0  0  0  0  0  0  0  0  0
    1.3629   -1.7382    0.0000 C   0  0  0  0  0  0  0  0  0  0  0  0
  1  2  1  0  0  0  0
  2  3  1  0  0  0  0
  2  4  2  0  0  0  0
  4  5  1  0  0  0  0
  5  6  1  0  0  0  0
  5 20  1  0  0  0  0
  6  7  1  0  0  0  0
  6 20  1  0  0  0  0
  7  8  2  0  0  0  0
  7  9  1  0  0  0  0
  9 10  1  0  0  0  0
 10 11  1  0  0  0  0
 10 18  1  0  0  0  0
 11 12  1  0  0  0  0
 12 13  2  0  0  0  0
 12 14  1  0  0  0  0
 14 15  1  0  0  0  0
 14 18  2  0  0  0  0
 15 16  1  0  0  0  0
 16 17  3  0  0  0  0
 18 19  1  0  0  0  0
 20 21  1  0  0  0  0
 20 22  1  0  0  0  0
M  END
$$$$
OUST
 OpenBabel03171423152D

 25 26  0  0  0  0  0  0  0  0999 V2000
    4.2868   -0.8250    0.0000 C   0  0  0  0  0  0  0  0  0  0  0  0
    4.2868   -1.6500    0.0000 O   0  0  0  0  0  0  0  0  0  0  0  0
    3.5724   -2.0625    0.0000 C   0  0  0  0  0  0  0  0  0  0  0  0
    2.8579   -1.6500    0.0000 O   0  0  0  0  0  0  0  0  0  0  0  0
    3.5724   -2.8875    0.0000 C   0  0  0  0  0  0  0  0  0  0  0  0
    4.2868   -3.3000    0.0000 C   0  0  0  0  0  0  0  0  0  0  0  0
    4.2868   -4.1250    0.0000 C   0  0  0  0  0  0  0  0  0  0  0  0
    3.5724   -4.5375    0.0000 C   0  0  0  0  0  0  0  0  0  0  0  0
    2.8579   -4.1250    0.0000 C   0  0  0  0  0  0  0  0  0  0  0  0
    2.8579   -3.3000    0.0000 C   0  0  0  0  0  0  0  0  0  0  0  0
    2.1434   -2.8875    0.0000 S   0  0  0  0  0  0  0  0  0  0  0  0
    2.5559   -2.1730    0.0000 O   0  0  0  0  0  0  0  0  0  0  0  0
    1.7309   -3.6020    0.0000 O   0  0  0  0  0  0  0  0  0  0  0  0
    1.4289   -2.4750    0.0000 N   0  0  0  0  0  0  0  0  0  0  0  0
    1.4289   -1.6500    0.0000 C   0  0  0  0  0  0  0  0  0  0  0  0
    2.1434   -1.2375    0.0000 O   0  0  0  0  0  0  0  0  0  0  0  0
    0.7145   -1.2375    0.0000 N   0  0  0  0  0  0  0  0  0  0  0  0
    0.7145   -0.4125    0.0000 C   0  0  0  0  0  0  0  0  0  0  0  0
    0.0000    0.0000    0.0000 N   0  0  0  0  0  0  0  0  0  0  0  0
    0.0000    0.8250    0.0000 C   0  0  0  0  0  0  0  0  0  0  0  0
   -0.7145    1.2375    0.0000 C   0  0  0  0  0  0  0  0  0  0  0  0
    0.7145    1.2375    0.0000 C   0  0  0  0  0  0  0  0  0  0  0  0
    1.4289    0.8250    0.0000 C   0  0  0  0  0  0  0  0  0  0  0  0
    2.1434    1.2375    0.0000 C   0  0  0  0  0  0  0  0  0  0  0  0
    1.4289    0.0000    0.0000 N   0  0  0  0  0  0  0  0  0  0  0  0
  1  2  1  0  0  0  0
  2  3  1  0  0  0  0
  3  4  2  0  0  0  0
  3  5  1  0  0  0  0
  5  6  2  0  0  0  0
  5 10  1  0  0  0  0
  6  7  1  0  0  0  0
  7  8  2  0  0  0  0
  8  9  1  0  0  0  0
  9 10  2  0  0  0  0
 10 11  1  0  0  0  0
 11 12  2  0  0  0  0
 11 13  2  0  0  0  0
 11 14  1  0  0  0  0
 14 15  1  0  0  0  0
 15 16  1  0  0  0  0
 15 17  2  3  0  0  0
 17 18  1  0  0  0  0
 18 19  2  0  0  0  0
 18 25  1  0  0  0  0
 19 20  1  0  0  0  0
 20 21  1  0  0  0  0
 20 22  2  0  0  0  0
 22 23  1  0  0  0  0
 23 24  1  0  0  0  0
 23 25  2  0  0  0  0
M  END
>  <type>
common

$$$$
menthol
 OpenBabel03171423152D

 11 11  0  0  1  0  0  0  0  0999 V2000
    0.0000    2.4750    0.0000 C   0  0  0  0  0  0  0  0  0  0  0  0
    0.7145    2.0625    0.0000 C   0  0  0  0  0  0  0  0  0  0  0  0
    1.4289    2.4750    0.0000 C   0  0  0  0  0  0  0  0  0  0  0  0
    0.7145    1.2375    0.0000 C   0  0  2  0  0  0  0  0  0  0  0  0
    1.4289    0.8250    0.0000 C   0  0  0  0  0  0  0  0  0  0  0  0
    1.4289   -0.0000    0.0000 C   0  0  0  0  0  0  0  0  0  0  0  0
    0.7145   -0.4125    0.0000 C   0  0  1  0  0  0  0  0  0  0  0  0
    0.7145   -1.2375    0.0000 C   0  0  0  0  0  0  0  0  0  0  0  0
    0.0000    0.0000    0.0000 C   0  0  0  0  0  0  0  0  0  0  0  0
    0.0000    0.8250    0.0000 C   0  0  1  0  0  0  0  0  0  0  0  0
   -0.7145    1.2375    0.0000 O   0  0  0  0  0  0  0  0  0  0  0  0
  1  2  1  0  0  0  0
  2  3  1  0  0  0  0
  4  2  1  6  0  0  0
  4  5  1  0  0  0  0
  4 10  1  0  0  0  0
  5  6  1  0  0  0  0
  6  7  1  0  0  0  0
  7  8  1  1  0  0  0
  7  9  1  0  0  0  0
  9 10  1  0  0  0  0
 10 11  1  1  0  0  0
M  END
$$$$
Copper ethanolamine
 OpenBabel03171423152D

  5  3  0  0  0  0  0  0  0  0999 V2000
    0.0000    0.0000    0.0000 Cu  0  0  0  0  0 15  0  0  0  0  0  0
    3.3589    0.7145    0.0000 C   0  0  0  0  0  0  0  0  0  0  0  0
    2.9464   -0.0000    0.0000 C   0  0  3  0  0  0  0  0  0  0  0  0
    3.3589   -0.7145    0.0000 N   0  0  0  0  0  0  0  0  0  0  0  0
    2.1214   -0.0000    0.0000 O   0  0  0  0  0  0  0  0  0  0  0  0
  2  3  1  0  0  0  0
  3  4  1  0  0  0  0
  3  5  1  0  0  0  0
M  END
$$$$
hexythiazox
 OpenBabel03171423152D

 23 25  0  0  0  0  0  0  0  0999 V2000
    0.7145   -0.4125    0.0000 C   0  0  0  0  0  0  0  0  0  0  0  0
    0.7145   -1.2375    0.0000 C   0  0  3  0  0  0  0  0  0  0  0  0
    1.3819   -1.7224    0.0000 C   0  0  3  0  0  0  0  0  0  0  0  0
    1.1270   -2.5070    0.0000 S   0  0  0  0  0  0  0  0  0  0  0  0
    0.3020   -2.5070    0.0000 C   0  0  0  0  0  0  0  0  0  0  0  0
   -0.1830   -3.1745    0.0000 O   0  0  0  0  0  0  0  0  0  0  0  0
    0.0470   -1.7224    0.0000 N   0  0  0  0  0  0  0  0  0  0  0  0
   -0.7376   -1.4675    0.0000 C   0  0  0  0  0  0  0  0  0  0  0  0
   -0.9091   -0.6605    0.0000 O   0  0  0  0  0  0  0  0  0  0  0  0
   -1.3507   -2.0195    0.0000 N   0  0  0  0  0  0  0  0  0  0  0  0
   -2.1353   -1.7646    0.0000 C   0  0  0  0  0  0  0  0  0  0  0  0
   -2.7484   -2.3166    0.0000 C   0  0  0  0  0  0  0  0  0  0  0  0
   -3.5330   -2.0617    0.0000 C   0  0  0  0  0  0  0  0  0  0  0  0
   -3.7045   -1.2547    0.0000 C   0  0  0  0  0  0  0  0  0  0  0  0
   -3.0915   -0.7027    0.0000 C   0  0  0  0  0  0  0  0  0  0  0  0
   -2.3068   -0.9576    0.0000 C   0  0  0  0  0  0  0  0  0  0  0  0
    2.1665   -1.4675    0.0000 C   0  0  0  0  0  0  0  0  0  0  0  0
    2.3381   -0.6605    0.0000 C   0  0  0  0  0  0  0  0  0  0  0  0
    3.1227   -0.4056    0.0000 C   0  0  0  0  0  0  0  0  0  0  0  0
    3.7358   -0.9576    0.0000 C   0  0  0  0  0  0  0  0  0  0  0  0
    4.5204   -0.7027    0.0000 Cl  0  0  0  0  0  0  0  0  0  0  0  0
    3.5642   -1.7646    0.0000 C   0  0  0  0  0  0  0  0  0  0  0  0
    2.7796   -2.0195    0.0000 C   0  0  0  0  0  0  0  0  0  0  0  0
  1  2  1  0  0  0  0
  2  3  1  0  0  0  0
  2  7  1  0  0  0  0
  3  4  1  0  0  0  0
  3 17  1  0  0  0  0
  4  5  1  0  0  0  0
  5  6  2  0  0  0  0
  5  7  1  0  0  0  0
  7  8  1  0  0  0  0
  8  9  2  0  0  0  0
  8 10  1  0  0  0  0
 10 11  1  0  0  0  0
 11 12  1  0  0  0  0
 11 16  1  0  0  0  0
 12 13  1  0  0  0  0
 13 14  1  0  0  0  0
 14 15  1  0  0  0  0
 15 16  1  0  0  0  0
 17 18  2  0  0  0  0
 17 23  1  0  0  0  0
 18 19  1  0  0  0  0
 19 20  2  0  0  0  0
 20 21  1  0  0  0  0
 20 22  1  0  0  0  0
 22 23  2  0  0  0  0
M  END
$$$$
phenol
 OpenBabel03171423152D

  7  7  0  0  0  0  0  0  0  0999 V2000
    0.7145    2.0625    0.0000 O   0  0  0  0  0  0  0  0  0  0  0  0
    0.7145    1.2375    0.0000 C   0  0  0  0  0  0  0  0  0  0  0  0
    1.4289    0.8250    0.0000 C   0  0  0  0  0  0  0  0  0  0  0  0
    1.4289   -0.0000    0.0000 C   0  0  0  0  0  0  0  0  0  0  0  0
    0.7145   -0.4125    0.0000 C   0  0  0  0  0  0  0  0  0  0  0  0
    0.0000    0.0000    0.0000 C   0  0  0  0  0  0  0  0  0  0  0  0
    0.0000    0.8250    0.0000 C   0  0  0  0  0  0  0  0  0  0  0  0
  1  2  1  0  0  0  0
  2  3  2  0  0  0  0
  2  7  1  0  0  0  0
  3  4  1  0  0  0  0
  4  5  2  0  0  0  0
  5  6  1  0  0  0  0
  6  7  2  0  0  0  0
M  END
$$$$
Ansar
 OpenBabel03171423152D

  5  4  0  0  0  0  0  0  0  0999 V2000
    0.8250   -0.8250    0.0000 C   0  0  0  0  0  0  0  0  0  0  0  0
    0.8250    0.0000    0.0000 As  0  0  0  0  0  0  0  0  0  0  0  0
    0.8250    0.8250    0.0000 C   0  0  0  0  0  0  0  0  0  0  0  0
    1.6500   -0.0000    0.0000 O   0  0  0  0  0  0  0  0  0  0  0  0
    0.0000    0.0000    0.0000 O   0  0  0  0  0  0  0  0  0  0  0  0
  1  2  1  0  0  0  0
  2  3  1  0  0  0  0
  2  4  1  0  0  0  0
  2  5  2  0  0  0  0
M  END
$$$$
pyridaben
 OpenBabel03171423152D

 24 25  0  0  0  0  0  0  0  0999 V2000
    1.4289   -0.8250    0.0000 C   0  0  0  0  0  0  0  0  0  0  0  0
    1.4289   -1.6500    0.0000 C   0  0  0  0  0  0  0  0  0  0  0  0
    0.6039   -1.6500    0.0000 C   0  0  0  0  0  0  0  0  0  0  0  0
    2.2539   -1.6500    0.0000 C   0  0  0  0  0  0  0  0  0  0  0  0
    1.4289   -2.4750    0.0000 N   0  0  0  0  0  0  0  0  0  0  0  0
    2.1434   -2.8875    0.0000 N   0  0  0  0  0  0  0  0  0  0  0  0
    2.1434   -3.7125    0.0000 C   0  0  0  0  0  0  0  0  0  0  0  0
    1.4289   -4.1250    0.0000 C   0  0  0  0  0  0  0  0  0  0  0  0
    1.4289   -4.9500    0.0000 S   0  0  0  0  0  0  0  0  0  0  0  0
    2.1434   -5.3625    0.0000 C   0  0  0  0  0  0  0  0  0  0  0  0
    2.1434   -6.1875    0.0000 C   0  0  0  0  0  0  0  0  0  0  0  0
    2.8579   -6.6000    0.0000 C   0  0  0  0  0  0  0  0  0  0  0  0
    2.8579   -7.4250    0.0000 C   0  0  0  0  0  0  0  0  0  0  0  0
    2.1434   -7.8375    0.0000 C   0  0  0  0  0  0  0  0  0  0  0  0
    1.4289   -7.4250    0.0000 C   0  0  0  0  0  0  0  0  0  0  0  0
    1.4289   -6.6000    0.0000 C   0  0  0  0  0  0  0  0  0  0  0  0
    2.1434   -8.6625    0.0000 C   0  0  0  0  0  0  0  0  0  0  0  0
    2.1434   -9.4875    0.0000 C   0  0  0  0  0  0  0  0  0  0  0  0
    1.3184   -8.6625    0.0000 C   0  0  0  0  0  0  0  0  0  0  0  0
    2.9684   -8.6625    0.0000 C   0  0  0  0  0  0  0  0  0  0  0  0
    0.7145   -3.7125    0.0000 C   0  0  0  0  0  0  0  0  0  0  0  0
    0.0000   -4.1250    0.0000 Cl  0  0  0  0  0  0  0  0  0  0  0  0
    0.7145   -2.8875    0.0000 C   0  0  0  0  0  0  0  0  0  0  0  0
    0.0000   -2.4750    0.0000 O   0  0  0  0  0  0  0  0  0  0  0  0
  1  2  1  0  0  0  0
  2  3  1  0  0  0  0
  2  4  1  0  0  0  0
  2  5  1  0  0  0  0
  5  6  1  0  0  0  0
  5 23  1  0  0  0  0
  6  7  2  0  0  0  0
  7  8  1  0  0  0  0
  8  9  1  0  0  0  0
  8 21  2  0  0  0  0
  9 10  1  0  0  0  0
 10 11  1  0  0  0  0
 11 12  2  0  0  0  0
 11 16  1  0  0  0  0
 12 13  1  0  0  0  0
 13 14  2  0  0  0  0
 14 15  1  0  0  0  0
 14 17  1  0  0  0  0
 15 16  2  0  0  0  0
 17 18  1  0  0  0  0
 17 19  1  0  0  0  0
 17 20  1  0  0  0  0
 21 22  1  0  0  0  0
 21 23  1  0  0  0  0
 23 24  2  0  0  0  0
M  END
$$$$
copper carbonate
 OpenBabel03171423152D

  5  3  0  0  0  0  0  0  0  0999 V2000
    0.0000    0.0000    0.0000 Cu  0  0  0  0  0 15  0  0  0  0  0  0
    3.2411    0.7145    0.0000 O   0  5  0  0  0  0  0  0  0  0  0  0
    2.8286   -0.0000    0.0000 C   0  0  0  0  0  0  0  0  0  0  0  0
    3.2411   -0.7145    0.0000 O   0  5  0  0  0  0  0  0  0  0  0  0
    2.0036   -0.0000    0.0000 O   0  0  0  0  0  0  0  0  0  0  0  0
  2  3  1  0  0  0  0
  3  4  1  0  0  0  0
  3  5  2  0  0  0  0
M  CHG  2   2  -1   4  -1
M  END
$$$$
1-Octen-3-ol
 OpenBabel03171423152D

  9  8  0  0  0  0  0  0  0  0999 V2000
    1.0461    1.4289    0.0000 C   0  0  0  0  0  0  0  0  0  0  0  0
    1.7605    1.8414    0.0000 C   0  0  0  0  0  0  0  0  0  0  0  0
    2.4750    1.4289    0.0000 C   0  0  0  0  0  0  0  0  0  0  0  0
    3.1895    1.8414    0.0000 C   0  0  0  0  0  0  0  0  0  0  0  0
    3.9039    1.4289    0.0000 C   0  0  0  0  0  0  0  0  0  0  0  0
    4.6184    1.8414    0.0000 C   0  0  3  0  0  0  0  0  0  0  0  0
    4.6184    2.6664    0.0000 O   0  0  0  0  0  0  0  0  0  0  0  0
    5.3329    1.4289    0.0000 C   0  0  0  0  0  0  0  0  0  0  0  0
    6.0474    1.8414    0.0000 C   0  0  0  0  0  0  0  0  0  0  0  0
  1  2  1  0  0  0  0
  2  3  1  0  0  0  0
  3  4  1  0  0  0  0
  4  5  1  0  0  0  0
  5  6  1  0  0  0  0
  6  7  1  0  0  0  0
  6  8  1  0  0  0  0
  8  9  2  0  0  0  0
M  END
$$$$
thiobencarb
 OpenBabel03171423152D

 16 16  0  0  0  0  0  0  0  0999 V2000
    2.0329   -1.0461    0.0000 C   0  0  0  0  0  0  0  0  0  0  0  0
    2.8579   -1.0461    0.0000 C   0  0  0  0  0  0  0  0  0  0  0  0
    3.2704   -1.7605    0.0000 N   0  0  0  0  0  0  0  0  0  0  0  0
    2.8579   -2.4750    0.0000 C   0  0  0  0  0  0  0  0  0  0  0  0
    2.0329   -2.4750    0.0000 C   0  0  0  0  0  0  0  0  0  0  0  0
    4.0954   -1.7605    0.0000 C   0  0  0  0  0  0  0  0  0  0  0  0
    4.5079   -1.0461    0.0000 O   0  0  0  0  0  0  0  0  0  0  0  0
    4.5079   -2.4750    0.0000 S   0  0  0  0  0  0  0  0  0  0  0  0
    5.3329   -2.4750    0.0000 C   0  0  0  0  0  0  0  0  0  0  0  0
    5.7454   -3.1895    0.0000 C   0  0  0  0  0  0  0  0  0  0  0  0
    6.5704   -3.1895    0.0000 C   0  0  0  0  0  0  0  0  0  0  0  0
    6.9829   -3.9039    0.0000 C   0  0  0  0  0  0  0  0  0  0  0  0
    6.5704   -4.6184    0.0000 C   0  0  0  0  0  0  0  0  0  0  0  0
    6.9829   -5.3329    0.0000 Cl  0  0  0  0  0  0  0  0  0  0  0  0
    5.7454   -4.6184    0.0000 C   0  0  0  0  0  0  0  0  0  0  0  0
    5.3329   -3.9039    0.0000 C   0  0  0  0  0  0  0  0  0  0  0  0
  1  2  1  0  0  0  0
  2  3  1  0  0  0  0
  3  4  1  0  0  0  0
  3  6  1  0  0  0  0
  4  5  1  0  0  0  0
  6  7  2  0  0  0  0
  6  8  1  0  0  0  0
  8  9  1  0  0  0  0
  9 10  1  0  0  0  0
 10 11  2  0  0  0  0
 10 16  1  0  0  0  0
 11 12  1  0  0  0  0
 12 13  2  0  0  0  0
 13 14  1  0  0  0  0
 13 15  1  0  0  0  0
 15 16  2  0  0  0  0
M  END
$$$$
Benzenemethanaminium, N-[2-[(2,6-dimethylphenyl) amino]-2-oxoethyl]-N,N-diethyl-
 OpenBabel03171423152D

 24 25  0  0  0  0  0  0  0  0999 V2000
    2.8579   -3.3000    0.0000 C   0  0  0  0  0  0  0  0  0  0  0  0
    2.1434   -2.8875    0.0000 N   0  3  0  0  0  0  0  0  0  0  0  0
    2.8579   -4.1250    0.0000 C   0  0  0  0  0  0  0  0  0  0  0  0
    3.5724   -4.5375    0.0000 C   0  0  0  0  0  0  0  0  0  0  0  0
    3.5724   -5.3625    0.0000 C   0  0  0  0  0  0  0  0  0  0  0  0
    2.8579   -5.7750    0.0000 C   0  0  0  0  0  0  0  0  0  0  0  0
    2.1434   -5.3625    0.0000 C   0  0  0  0  0  0  0  0  0  0  0  0
    2.1434   -4.5375    0.0000 C   0  0  0  0  0  0  0  0  0  0  0  0
    2.5559   -2.1730    0.0000 C   0  0  0  0  0  0  0  0  0  0  0  0
    3.3809   -2.1730    0.0000 C   0  0  0  0  0  0  0  0  0  0  0  0
    1.7309   -3.6020    0.0000 C   0  0  0  0  0  0  0  0  0  0  0  0
    0.9059   -3.6020    0.0000 C   0  0  0  0  0  0  0  0  0  0  0  0
    1.4289   -2.4750    0.0000 C   0  0  0  0  0  0  0  0  0  0  0  0
    1.4289   -1.6500    0.0000 C   0  0  0  0  0  0  0  0  0  0  0  0
    2.1434   -1.2375    0.0000 O   0  0  0  0  0  0  0  0  0  0  0  0
    0.7145   -1.2375    0.0000 N   0  0  0  0  0  0  0  0  0  0  0  0
    0.7145   -0.4125    0.0000 C   0  0  0  0  0  0  0  0  0  0  0  0
    0.0000    0.0000    0.0000 C   0  0  0  0  0  0  0  0  0  0  0  0
    0.0000    0.8250    0.0000 C   0  0  0  0  0  0  0  0  0  0  0  0
    0.7145    1.2375    0.0000 C   0  0  0  0  0  0  0  0  0  0  0  0
    1.4289    0.8250    0.0000 C   0  0  0  0  0  0  0  0  0  0  0  0
    1.4289    0.0000    0.0000 C   0  0  0  0  0  0  0  0  0  0  0  0
   -0.7145   -0.4125    0.0000 C   0  0  0  0  0  0  0  0  0  0  0  0
    2.1434   -0.4125    0.0000 C   0  0  0  0  0  0  0  0  0  0  0  0
  1  2  1  0  0  0  0
  1  3  1  0  0  0  0
  2  9  1  0  0  0  0
  2 11  1  0  0  0  0
  2 13  1  0  0  0  0
  3  4  2  0  0  0  0
  3  8  1  0  0  0  0
  4  5  1  0  0  0  0
  5  6  2  0  0  0  0
  6  7  1  0  0  0  0
  7  8  2  0  0  0  0
  9 10  1  0  0  0  0
 11 12  1  0  0  0  0
 13 14  1  0  0  0  0
 14 15  2  0  0  0  0
 14 16  1  0  0  0  0
 16 17  1  0  0  0  0
 17 18  2  0  0  0  0
 17 22  1  0  0  0  0
 18 19  1  0  0  0  0
 18 23  1  0  0  0  0
 19 20  2  0  0  0  0
 20 21  1  0  0  0  0
 21 22  2  0  0  0  0
 22 24  1  0  0  0  0
M  CHG  1   2   1
M  END
>  <type>
systematic

$$$$
Tebuconazole
 OpenBabel03171423152D

 21 22  0  0  0  0  0  0  0  0999 V2000
   -3.1637   -2.4261    0.0000 C   0  0  0  0  0  0  0  0  0  0  0  0
   -2.4492   -2.8386    0.0000 C   0  0  0  0  0  0  0  0  0  0  0  0
   -1.7347   -3.2511    0.0000 C   0  0  0  0  0  0  0  0  0  0  0  0
   -2.8617   -3.5530    0.0000 C   0  0  0  0  0  0  0  0  0  0  0  0
   -2.0367   -2.1241    0.0000 C   0  0  3  0  0  0  0  0  0  0  0  0
   -1.6242   -1.4096    0.0000 O   0  0  0  0  0  0  0  0  0  0  0  0
   -2.7512   -1.7116    0.0000 C   0  0  0  0  0  0  0  0  0  0  0  0
   -2.7512   -0.8866    0.0000 C   0  0  0  0  0  0  0  0  0  0  0  0
   -3.4656   -0.4741    0.0000 C   0  0  0  0  0  0  0  0  0  0  0  0
   -4.1801   -0.8866    0.0000 C   0  0  0  0  0  0  0  0  0  0  0  0
   -4.8946   -0.4741    0.0000 C   0  0  0  0  0  0  0  0  0  0  0  0
   -4.8946    0.3509    0.0000 C   0  0  0  0  0  0  0  0  0  0  0  0
   -5.6091    0.7634    0.0000 Cl  0  0  0  0  0  0  0  0  0  0  0  0
   -4.1801    0.7634    0.0000 C   0  0  0  0  0  0  0  0  0  0  0  0
   -3.4656    0.3509    0.0000 C   0  0  0  0  0  0  0  0  0  0  0  0
   -1.3222   -2.5366    0.0000 C   0  0  0  0  0  0  0  0  0  0  0  0
   -1.3222   -3.3616    0.0000 N   0  0  0  0  0  0  0  0  0  0  0  0
   -0.6548   -3.8465    0.0000 C   0  0  0  0  0  0  0  0  0  0  0  0
   -0.9097   -4.6312    0.0000 N   0  0  0  0  0  0  0  0  0  0  0  0
   -1.7347   -4.6312    0.0000 C   0  0  0  0  0  0  0  0  0  0  0  0
   -1.9897   -3.8465    0.0000 N   0  0  0  0  0  0  0  0  0  0  0  0
  1  2  1  0  0  0  0
  2  3  1  0  0  0  0
  2  4  1  0  0  0  0
  2  5  1  0  0  0  0
  5  6  1  0  0  0  0
  5  7  1  0  0  0  0
  5 16  1  0  0  0  0
  7  8  1  0  0  0  0
  8  9  1  0  0  0  0
  9 10  2  0  0  0  0
  9 15  1  0  0  0  0
 10 11  1  0  0  0  0
 11 12  2  0  0  0  0
 12 13  1  0  0  0  0
 12 14  1  0  0  0  0
 14 15  2  0  0  0  0
 16 17  1  0  0  0  0
 17 18  1  0  0  0  0
 17 21  1  0  0  0  0
 18 19  2  0  0  0  0
 19 20  1  0  0  0  0
 20 21  2  0  0  0  0
M  END
$$$$
carbonate
 OpenBabel03171423152D

  4  3  0  0  0  0  0  0  0  0999 V2000
    1.2375    0.7145    0.0000 O   0  5  0  0  0  0  0  0  0  0  0  0
    0.8250    0.0000    0.0000 C   0  0  0  0  0  0  0  0  0  0  0  0
    1.2375   -0.7145    0.0000 O   0  5  0  0  0  0  0  0  0  0  0  0
    0.0000    0.0000    0.0000 O   0  0  0  0  0  0  0  0  0  0  0  0
  1  2  1  0  0  0  0
  2  3  1  0  0  0  0
  2  4  2  0  0  0  0
M  CHG  2   1  -1   3  -1
M  END
$$$$
atrazine
 OpenBabel03171423152D

 14 14  0  0  0  0  0  0  0  0999 V2000
    1.4289    3.3000    0.0000 C   0  0  0  0  0  0  0  0  0  0  0  0
    1.4289    2.4750    0.0000 C   0  0  0  0  0  0  0  0  0  0  0  0
    0.7145    2.0625    0.0000 N   0  0  0  0  0  0  0  0  0  0  0  0
    0.7145    1.2375    0.0000 C   0  0  0  0  0  0  0  0  0  0  0  0
    1.4289    0.8250    0.0000 N   0  0  0  0  0  0  0  0  0  0  0  0
    1.4289   -0.0000    0.0000 C   0  0  0  0  0  0  0  0  0  0  0  0
    2.1434   -0.4125    0.0000 Cl  0  0  0  0  0  0  0  0  0  0  0  0
    0.7145   -0.4125    0.0000 N   0  0  0  0  0  0  0  0  0  0  0  0
    0.0000    0.0000    0.0000 C   0  0  0  0  0  0  0  0  0  0  0  0
   -0.7145   -0.4125    0.0000 N   0  0  0  0  0  0  0  0  0  0  0  0
   -1.4289    0.0000    0.0000 C   0  0  0  0  0  0  0  0  0  0  0  0
   -2.1434   -0.4125    0.0000 C   0  0  0  0  0  0  0  0  0  0  0  0
   -1.4289    0.8250    0.0000 C   0  0  0  0  0  0  0  0  0  0  0  0
    0.0000    0.8250    0.0000 N   0  0  0  0  0  0  0  0  0  0  0  0
  1  2  1  0  0  0  0
  2  3  1  0  0  0  0
  3  4  1  0  0  0  0
  4  5  2  0  0  0  0
  4 14  1  0  0  0  0
  5  6  1  0  0  0  0
  6  7  1  0  0  0  0
  6  8  2  0  0  0  0
  8  9  1  0  0  0  0
  9 10  1  0  0  0  0
  9 14  2  0  0  0  0
 10 11  1  0  0  0  0
 11 12  1  0  0  0  0
 11 13  1  0  0  0  0
M  END
$$$$
tralkoxydim
 OpenBabel03171423152D

 24 25  0  0  0  0  0  0  0  0999 V2000
    2.1434    2.0625    0.0000 C   0  0  0  0  0  0  0  0  0  0  0  0
    2.1434    1.2375    0.0000 C   0  0  0  0  0  0  0  0  0  0  0  0
    1.4289    0.8250    0.0000 O   0  0  0  0  0  0  0  0  0  0  0  0
    1.4289   -0.0000    0.0000 N   0  0  0  0  0  0  0  0  0  0  0  0
    0.7145   -0.4125    0.0000 C   0  0  0  0  0  0  0  0  0  0  0  0
    0.0000    0.0000    0.0000 C   0  0  0  0  0  0  0  0  0  0  0  0
   -0.7145   -0.4125    0.0000 C   0  0  0  0  0  0  0  0  0  0  0  0
    0.7145   -1.2375    0.0000 C   0  0  0  0  0  0  0  0  0  0  0  0
    1.4289   -1.6500    0.0000 C   0  0  0  0  0  0  0  0  0  0  0  0
    2.1434   -1.2375    0.0000 O   0  0  0  0  0  0  0  0  0  0  0  0
    1.4289   -2.4750    0.0000 C   0  0  0  0  0  0  0  0  0  0  0  0
    0.7145   -2.8875    0.0000 C   0  0  3  0  0  0  0  0  0  0  0  0
    0.0000   -2.4750    0.0000 C   0  0  0  0  0  0  0  0  0  0  0  0
    0.0000   -1.6500    0.0000 C   0  0  0  0  0  0  0  0  0  0  0  0
   -0.7145   -1.2375    0.0000 O   0  0  0  0  0  0  0  0  0  0  0  0
    0.7145   -3.7125    0.0000 C   0  0  0  0  0  0  0  0  0  0  0  0
    1.4289   -4.1250    0.0000 C   0  0  0  0  0  0  0  0  0  0  0  0
    2.1434   -3.7125    0.0000 C   0  0  0  0  0  0  0  0  0  0  0  0
    1.4289   -4.9500    0.0000 C   0  0  0  0  0  0  0  0  0  0  0  0
    0.7145   -5.3625    0.0000 C   0  0  0  0  0  0  0  0  0  0  0  0
    0.7145   -6.1875    0.0000 C   0  0  0  0  0  0  0  0  0  0  0  0
   -0.0000   -4.9500    0.0000 C   0  0  0  0  0  0  0  0  0  0  0  0
    0.0000   -4.1250    0.0000 C   0  0  0  0  0  0  0  0  0  0  0  0
   -0.7145   -3.7125    0.0000 C   0  0  0  0  0  0  0  0  0  0  0  0
  1  2  1  0  0  0  0
  2  3  1  0  0  0  0
  3  4  1  0  0  0  0
  4  5  2  0  0  0  0
  5  6  1  0  0  0  0
  5  8  1  0  0  0  0
  6  7  1  0  0  0  0
  8  9  2  0  0  0  0
  8 14  1  0  0  0  0
  9 10  1  0  0  0  0
  9 11  1  0  0  0  0
 11 12  1  0  0  0  0
 12 13  1  0  0  0  0
 12 16  1  0  0  0  0
 13 14  1  0  0  0  0
 14 15  2  0  0  0  0
 16 17  2  0  0  0  0
 16 23  1  0  0  0  0
 17 18  1  0  0  0  0
 17 19  1  0  0  0  0
 19 20  2  0  0  0  0
 20 21  1  0  0  0  0
 20 22  1  0  0  0  0
 22 23  2  0  0  0  0
 23 24  1  0  0  0  0
M  END
>  <type>
common

$$$$
InChI=1S/C42H67NO10.C41H65NO10/c1-11-26-13-12-14-35(53-37-16-15-34(43(6)7)24(4)49-37)23(3)38(45)33-20-31-29(32(33)21-36(44)51-26)17-22(2)28-18-27(19-30(28)31)52-42-41(48-10)40(47-9)39(46-8)25(5)50-42;1-10-26-12-11-13-34(52-36-17-16-33(42(5)6)23(3)48-36)22(2)37(44)32-20-30-28(31(32)21-35(43)50-26)15-14-25-18-27(19-29(25)30)51-41-40(47-9)39(46-8)38(45-7)24(4)49-41/h17,20,23-32,34-35,37,39-42H,11-16,18-19,21H2,1-10H3;14-15,20,22-31,33-34,36,38-41H,10-13,16-19,21H2,1-9H3/t23-,24-,25+,26+,27-,28+,29-,30-,31-,32+,34+,35+,37+,39+,40-,41-,42+;22-,23-,24+,25-,26+,27-,28-,29-,30-,31+,33+,34+,36+,38+,39-,40-,41+/m11/s1
 OpenBabel03171423152D

139149  0  0  0  0  0  0  0  0999 V2000
   -3.7922   -2.8758    0.0000 C   0  0  0  0  0  0  0  0  0  0  0  0
    1.3641   -2.4699    0.0000 C   0  0  0  0  0  0  0  0  0  0  0  0
   -2.2585   -0.4643    0.0000 C   0  0  0  0  0  0  0  0  0  0  0  0
   -4.2055    4.1608    0.0000 C   0  0  0  0  0  0  0  0  0  0  0  0
    4.4204   -2.5619    0.0000 C   0  0  0  0  0  0  0  0  0  0  0  0
   -5.6332    4.2221    0.0000 C   0  0  0  0  0  0  0  0  0  0  0  0
   -6.4000    3.0163    0.0000 C   0  0  0  0  0  0  0  0  0  0  0  0
    6.7225   -1.6530    0.0000 C   0  0  0  0  0  0  0  0  0  0  0  0
    6.3190    0.4921    0.0000 C   0  0  0  0  0  0  0  0  0  0  0  0
    4.2596    1.2153    0.0000 C   0  0  0  0  0  0  0  0  0  0  0  0
   -3.7568   -2.0516    0.0000 C   0  0  0  0  0  0  0  0  0  0  0  0
   -3.6861   -0.4031    0.0000 C   0  0  0  0  0  0  0  0  0  0  0  0
   -2.9900   -0.8458    0.0000 C   0  0  0  0  0  0  0  0  0  0  0  0
   -3.6508    0.4211    0.0000 C   0  0  0  0  0  0  0  0  0  0  0  0
   -5.0077    2.1308    0.0000 C   0  0  0  0  0  0  0  0  0  0  0  0
   -4.3116    1.6881    0.0000 C   0  0  0  0  0  0  0  0  0  0  0  0
    0.2451   -1.5812    0.0000 C   0  0  0  0  0  0  0  0  0  0  0  0
    2.3976   -1.0055    0.0000 C   0  0  0  0  0  0  0  0  0  0  0  0
    1.9074    0.2361    0.0000 C   0  0  0  0  0  0  0  0  0  0  0  0
   -0.0007    0.5198    0.0000 C   0  0  0  0  0  0  0  0  0  0  0  0
   -1.5624   -0.9071    0.0000 C   0  0  0  0  0  0  0  0  0  0  0  0
    1.0611   -1.7026    0.0000 C   0  0  0  0  0  0  0  0  0  0  0  0
   -2.2231    0.3599    0.0000 C   0  0  2  0  0  0  0  0  0  0  0  0
   -4.2409    3.3366    0.0000 C   0  0  2  0  0  0  0  0  0  0  0  0
    4.5417   -1.7459    0.0000 C   0  0  1  0  0  0  0  0  0  0  0  0
   -3.0253   -1.6701    0.0000 C   0  0  1  0  0  0  0  0  0  0  0  0
    2.6035   -0.2066    0.0000 C   0  0  2  0  0  0  0  0  0  0  0  0
    1.5742   -1.0565    0.0000 C   0  0  1  0  0  0  0  0  0  0  0  0
   -0.0579   -0.8139    0.0000 C   0  0  2  0  0  0  0  0  0  0  0  0
    1.2712   -0.2892    0.0000 C   0  0  2  0  0  0  0  0  0  0  0  0
    0.4552   -0.1678    0.0000 C   0  0  2  0  0  0  0  0  0  0  0  0
   -0.8309   -0.5256    0.0000 C   0  0  1  0  0  0  0  0  0  0  0  0
   -0.7955    0.2987    0.0000 C   0  0  0  0  0  0  0  0  0  0  0  0
   -4.9724    2.9551    0.0000 C   0  0  1  0  0  0  0  0  0  0  0  0
   -2.9193    0.8026    0.0000 C   0  0  1  0  0  0  0  0  0  0  0  0
   -1.5977   -1.7313    0.0000 C   0  0  0  0  0  0  0  0  0  0  0  0
   -3.5801    2.0696    0.0000 C   0  0  1  0  0  0  0  0  0  0  0  0
   -1.4917    0.7414    0.0000 C   0  0  0  0  0  0  0  0  0  0  0  0
    5.3091   -1.4429    0.0000 C   0  0  1  0  0  0  0  0  0  0  0  0
    5.4304   -0.6269    0.0000 C   0  0  2  0  0  0  0  0  0  0  0  0
    4.7843   -0.1138    0.0000 C   0  0  2  0  0  0  0  0  0  0  0  0
    4.0170   -0.4167    0.0000 C   0  0  1  0  0  0  0  0  0  0  0  0
   -5.6685    3.3978    0.0000 N   0  0  0  0  0  0  0  0  0  0  0  0
   -0.9016   -2.1740    0.0000 O   0  0  0  0  0  0  0  0  0  0  0  0
   -1.4563    1.5657    0.0000 O   0  0  0  0  0  0  0  0  0  0  0  0
    5.9551   -1.9560    0.0000 O   0  0  0  0  0  0  0  0  0  0  0  0
    6.1977   -0.3239    0.0000 O   0  0  0  0  0  0  0  0  0  0  0  0
    4.9056    0.7022    0.0000 O   0  0  0  0  0  0  0  0  0  0  0  0
   -3.5447    2.8939    0.0000 O   0  0  0  0  0  0  0  0  0  0  0  0
    3.8956   -1.2328    0.0000 O   0  0  0  0  0  0  0  0  0  0  0  0
   -2.3292   -2.1128    0.0000 O   0  0  0  0  0  0  0  0  0  0  0  0
    3.3709    0.0963    0.0000 O   0  0  0  0  0  0  0  0  0  0  0  0
   -2.8839    1.6269    0.0000 O   0  0  0  0  0  0  0  0  0  0  0  0
   11.5696   -2.9116    0.0000 C   0  0  0  0  0  0  0  0  0  0  0  0
   13.1032   -0.5001    0.0000 C   0  0  0  0  0  0  0  0  0  0  0  0
   11.1562    4.1250    0.0000 C   0  0  0  0  0  0  0  0  0  0  0  0
   19.7821   -2.5977    0.0000 C   0  0  0  0  0  0  0  0  0  0  0  0
    9.7286    4.1863    0.0000 C   0  0  0  0  0  0  0  0  0  0  0  0
    8.9617    2.9805    0.0000 C   0  0  0  0  0  0  0  0  0  0  0  0
   22.0842   -1.6888    0.0000 C   0  0  0  0  0  0  0  0  0  0  0  0
   21.6808    0.4563    0.0000 C   0  0  0  0  0  0  0  0  0  0  0  0
   19.6213    1.1795    0.0000 C   0  0  0  0  0  0  0  0  0  0  0  0
   11.6049   -2.0874    0.0000 C   0  0  0  0  0  0  0  0  0  0  0  0
   11.6756   -0.4389    0.0000 C   0  0  0  0  0  0  0  0  0  0  0  0
   12.3718   -0.8816    0.0000 C   0  0  0  0  0  0  0  0  0  0  0  0
   11.7110    0.3853    0.0000 C   0  0  0  0  0  0  0  0  0  0  0  0
   16.4228   -1.7384    0.0000 C   0  0  0  0  0  0  0  0  0  0  0  0
   15.6068   -1.6170    0.0000 C   0  0  0  0  0  0  0  0  0  0  0  0
   10.3540    2.0950    0.0000 C   0  0  0  0  0  0  0  0  0  0  0  0
   11.0502    1.6523    0.0000 C   0  0  0  0  0  0  0  0  0  0  0  0
   17.7593   -1.0413    0.0000 C   0  0  0  0  0  0  0  0  0  0  0  0
   17.2691    0.2003    0.0000 C   0  0  0  0  0  0  0  0  0  0  0  0
   15.3610    0.4840    0.0000 C   0  0  0  0  0  0  0  0  0  0  0  0
   13.7994   -0.9429    0.0000 C   0  0  0  0  0  0  0  0  0  0  0  0
   13.1386    0.3241    0.0000 C   0  0  2  0  0  0  0  0  0  0  0  0
   11.1209    3.3008    0.0000 C   0  0  2  0  0  0  0  0  0  0  0  0
   19.9034   -1.7817    0.0000 C   0  0  1  0  0  0  0  0  0  0  0  0
   16.9359   -1.0923    0.0000 C   0  0  2  0  0  0  0  0  0  0  0  0
   12.3364   -1.7059    0.0000 C   0  0  1  0  0  0  0  0  0  0  0  0
   17.9653   -0.2424    0.0000 C   0  0  2  0  0  0  0  0  0  0  0  0
   15.3038   -0.8497    0.0000 C   0  0  2  0  0  0  0  0  0  0  0  0
   16.6330   -0.3249    0.0000 C   0  0  2  0  0  0  0  0  0  0  0  0
   15.8169   -0.2036    0.0000 C   0  0  2  0  0  0  0  0  0  0  0  0
   14.5309   -0.5614    0.0000 C   0  0  1  0  0  0  0  0  0  0  0  0
   14.5662    0.2629    0.0000 C   0  0  0  0  0  0  0  0  0  0  0  0
   10.3894    2.9193    0.0000 C   0  0  1  0  0  0  0  0  0  0  0  0
   12.4424    0.7668    0.0000 C   0  0  1  0  0  0  0  0  0  0  0  0
   13.7640   -1.7671    0.0000 C   0  0  0  0  0  0  0  0  0  0  0  0
   11.7817    2.0338    0.0000 C   0  0  1  0  0  0  0  0  0  0  0  0
   13.8701    0.7056    0.0000 C   0  0  0  0  0  0  0  0  0  0  0  0
   20.6708   -1.4787    0.0000 C   0  0  1  0  0  0  0  0  0  0  0  0
   20.7921   -0.6627    0.0000 C   0  0  2  0  0  0  0  0  0  0  0  0
   20.1461   -0.1496    0.0000 C   0  0  2  0  0  0  0  0  0  0  0  0
   19.3787   -0.4525    0.0000 C   0  0  1  0  0  0  0  0  0  0  0  0
    9.6932    3.3620    0.0000 N   0  0  0  0  0  0  0  0  0  0  0  0
   14.4602   -2.2098    0.0000 O   0  0  0  0  0  0  0  0  0  0  0  0
   13.9054    1.5299    0.0000 O   0  0  0  0  0  0  0  0  0  0  0  0
   21.3168   -1.9918    0.0000 O   0  0  0  0  0  0  0  0  0  0  0  0
   21.5595   -0.3597    0.0000 O   0  0  0  0  0  0  0  0  0  0  0  0
   20.2674    0.6664    0.0000 O   0  0  0  0  0  0  0  0  0  0  0  0
   11.8170    2.8581    0.0000 O   0  0  0  0  0  0  0  0  0  0  0  0
   19.2574   -1.2686    0.0000 O   0  0  0  0  0  0  0  0  0  0  0  0
   13.0325   -2.1486    0.0000 O   0  0  0  0  0  0  0  0  0  0  0  0
   18.7326    0.0605    0.0000 O   0  0  0  0  0  0  0  0  0  0  0  0
   12.4778    1.5911    0.0000 O   0  0  0  0  0  0  0  0  0  0  0  0
   -2.9546   -0.0216    0.0000 H   0  0  0  0  0  0  0  0  0  0  0  0
   -4.9370    3.7793    0.0000 H   0  0  0  0  0  0  0  0  0  0  0  0
    5.3243   -2.0070    0.0000 H   0  0  0  0  0  0  0  0  0  0  0  0
   -3.7215   -1.2274    0.0000 H   0  0  0  0  0  0  0  0  0  0  0  0
    3.2219   -0.7528    0.0000 H   0  0  0  0  0  0  0  0  0  0  0  0
    1.9557   -1.7880    0.0000 H   0  0  0  0  0  0  0  0  0  0  0  0
   -0.3994   -1.5649    0.0000 H   0  0  0  0  0  0  0  0  0  0  0  0
    0.7916    0.3821    0.0000 H   0  0  0  0  0  0  0  0  0  0  0  0
    0.6331    0.6377    0.0000 H   0  0  0  0  0  0  0  0  0  0  0  0
   -1.0646   -1.3168    0.0000 H   0  0  0  0  0  0  0  0  0  0  0  0
   -5.7038    2.5736    0.0000 H   0  0  0  0  0  0  0  0  0  0  0  0
   -3.7249    0.9806    0.0000 H   0  0  0  0  0  0  0  0  0  0  0  0
   -3.8952    1.3072    0.0000 H   0  0  0  0  0  0  0  0  0  0  0  0
    5.4742   -2.2512    0.0000 H   0  0  0  0  0  0  0  0  0  0  0  0
    6.0764   -1.1399    0.0000 H   0  0  0  0  0  0  0  0  0  0  0  0
    5.5517    0.1892    0.0000 H   0  0  0  0  0  0  0  0  0  0  0  0
    4.1383    0.3993    0.0000 H   0  0  0  0  0  0  0  0  0  0  0  0
   12.4071   -0.0574    0.0000 H   0  0  0  0  0  0  0  0  0  0  0  0
   10.4247    3.7435    0.0000 H   0  0  0  0  0  0  0  0  0  0  0  0
   20.6860   -2.0428    0.0000 H   0  0  0  0  0  0  0  0  0  0  0  0
   17.3174   -1.8238    0.0000 H   0  0  0  0  0  0  0  0  0  0  0  0
   11.6403   -1.2632    0.0000 H   0  0  0  0  0  0  0  0  0  0  0  0
   18.5836   -0.7886    0.0000 H   0  0  0  0  0  0  0  0  0  0  0  0
   14.9623   -1.6007    0.0000 H   0  0  0  0  0  0  0  0  0  0  0  0
   16.1534    0.3463    0.0000 H   0  0  0  0  0  0  0  0  0  0  0  0
   15.9949    0.6019    0.0000 H   0  0  0  0  0  0  0  0  0  0  0  0
   14.2972   -1.3526    0.0000 H   0  0  0  0  0  0  0  0  0  0  0  0
    9.6579    2.5378    0.0000 H   0  0  0  0  0  0  0  0  0  0  0  0
   11.6369    0.9448    0.0000 H   0  0  0  0  0  0  0  0  0  0  0  0
   11.4665    1.2714    0.0000 H   0  0  0  0  0  0  0  0  0  0  0  0
   20.8359   -2.2870    0.0000 H   0  0  0  0  0  0  0  0  0  0  0  0
   21.4381   -1.1757    0.0000 H   0  0  0  0  0  0  0  0  0  0  0  0
   20.9134    0.1534    0.0000 H   0  0  0  0  0  0  0  0  0  0  0  0
   19.5000    0.3635    0.0000 H   0  0  0  0  0  0  0  0  0  0  0  0
 11  1  1  0  0  0  0
 13 12  1  0  0  0  0
 14 12  1  0  0  0  0
 16 15  1  0  0  0  0
 22  2  1  0  0  0  0
 22 17  2  0  0  0  0
 23  3  1  0  0  0  0
 23106  1  1  0  0  0
 24  4  1  0  0  0  0
 24107  1  6  0  0  0
 25  5  1  0  0  0  0
 25108  1  1  0  0  0
 26 11  1  0  0  0  0
 26 13  1  0  0  0  0
 26109  1  6  0  0  0
 27 18  1  0  0  0  0
 27 19  1  0  0  0  0
 27 52  1  0  0  0  0
 27110  1  1  0  0  0
 28 18  1  0  0  0  0
 28 22  1  0  0  0  0
 28111  1  6  0  0  0
 29 17  1  0  0  0  0
 29112  1  6  0  0  0
 30 19  1  0  0  0  0
 30 28  1  0  0  0  0
 30113  1  1  0  0  0
 31 20  1  0  0  0  0
 31 29  1  0  0  0  0
 31 30  1  0  0  0  0
 31114  1  6  0  0  0
 32 21  1  0  0  0  0
 32 29  1  0  0  0  0
 32115  1  1  0  0  0
 33 20  2  0  0  0  0
 33 32  1  0  0  0  0
 34 15  1  0  0  0  0
 34 24  1  0  0  0  0
 34 43  1  0  0  0  0
 34116  1  1  0  0  0
 35 14  1  0  0  0  0
 35 23  1  0  0  0  0
 35 53  1  0  0  0  0
 35117  1  1  0  0  0
 36 21  1  0  0  0  0
 37 16  1  0  0  0  0
 37 53  1  0  0  0  0
 37118  1  6  0  0  0
 38 23  1  0  0  0  0
 38 33  1  0  0  0  0
 39 25  1  0  0  0  0
 39 46  1  0  0  0  0
 39119  1  6  0  0  0
 40 39  1  0  0  0  0
 40 47  1  0  0  0  0
 40120  1  1  0  0  0
 41 40  1  0  0  0  0
 41 48  1  0  0  0  0
 41121  1  1  0  0  0
 42 41  1  0  0  0  0
 42 52  1  0  0  0  0
 42122  1  6  0  0  0
 43  6  1  0  0  0  0
 43  7  1  0  0  0  0
 44 36  2  0  0  0  0
 45 38  2  0  0  0  0
 46  8  1  0  0  0  0
 47  9  1  0  0  0  0
 48 10  1  0  0  0  0
 49 24  1  0  0  0  0
 49 37  1  0  0  0  0
 50 25  1  0  0  0  0
 50 42  1  0  0  0  0
 51 26  1  0  0  0  0
 51 36  1  0  0  0  0
 63 54  1  0  0  0  0
 65 64  1  0  0  0  0
 66 64  1  0  0  0  0
 68 67  2  0  0  0  0
 70 69  1  0  0  0  0
 75 55  1  0  0  0  0
 75123  1  1  0  0  0
 76 56  1  0  0  0  0
 76124  1  6  0  0  0
 77 57  1  0  0  0  0
 77125  1  1  0  0  0
 78 67  1  0  0  0  0
 78 71  1  0  0  0  0
 78126  1  6  0  0  0
 79 63  1  0  0  0  0
 79 65  1  0  0  0  0
 79127  1  6  0  0  0
 80 71  1  0  0  0  0
 80 72  1  0  0  0  0
 80104  1  0  0  0  0
 80128  1  1  0  0  0
 81 68  1  0  0  0  0
 81129  1  6  0  0  0
 82 72  1  0  0  0  0
 82 78  1  0  0  0  0
 82130  1  1  0  0  0
 83 73  1  0  0  0  0
 83 81  1  0  0  0  0
 83 82  1  0  0  0  0
 83131  1  6  0  0  0
 84 74  1  0  0  0  0
 84 81  1  0  0  0  0
 84132  1  1  0  0  0
 85 73  2  0  0  0  0
 85 84  1  0  0  0  0
 86 69  1  0  0  0  0
 86 76  1  0  0  0  0
 86 95  1  0  0  0  0
 86133  1  1  0  0  0
 87 66  1  0  0  0  0
 87 75  1  0  0  0  0
 87105  1  0  0  0  0
 87134  1  1  0  0  0
 88 74  1  0  0  0  0
 89 70  1  0  0  0  0
 89105  1  0  0  0  0
 89135  1  6  0  0  0
 90 75  1  0  0  0  0
 90 85  1  0  0  0  0
 91 77  1  0  0  0  0
 91 98  1  0  0  0  0
 91136  1  6  0  0  0
 92 91  1  0  0  0  0
 92 99  1  0  0  0  0
 92137  1  1  0  0  0
 93 92  1  0  0  0  0
 93100  1  0  0  0  0
 93138  1  1  0  0  0
 94 93  1  0  0  0  0
 94104  1  0  0  0  0
 94139  1  6  0  0  0
 95 58  1  0  0  0  0
 95 59  1  0  0  0  0
 96 88  2  0  0  0  0
 97 90  2  0  0  0  0
 98 60  1  0  0  0  0
 99 61  1  0  0  0  0
100 62  1  0  0  0  0
101 76  1  0  0  0  0
101 89  1  0  0  0  0
102 77  1  0  0  0  0
102 94  1  0  0  0  0
103 79  1  0  0  0  0
103 88  1  0  0  0  0
M  END
$$$$
4,4-dimethyl-1,3-oxazolidine
 OpenBabel03171423152D

  7  7  0  0  0  0  0  0  0  0999 V2000
    1.1198    1.7274    0.0000 C   0  0  0  0  0  0  0  0  0  0  0  0
    0.5678    1.1143    0.0000 C   0  0  0  0  0  0  0  0  0  0  0  0
    0.0157    1.7274    0.0000 C   0  0  0  0  0  0  0  0  0  0  0  0
    1.2352    0.6294    0.0000 C   0  0  0  0  0  0  0  0  0  0  0  0
    0.9803   -0.1553    0.0000 O   0  0  0  0  0  0  0  0  0  0  0  0
    0.1553   -0.1553    0.0000 C   0  0  0  0  0  0  0  0  0  0  0  0
   -0.0997    0.6294    0.0000 N   0  0  0  0  0  0  0  0  0  0  0  0
  1  2  1  0  0  0  0
  2  3  1  0  0  0  0
  2  4  1  0  0  0  0
  2  7  1  0  0  0  0
  4  5  1  0  0  0  0
  5  6  1  0  0  0  0
  6  7  1  0  0  0  0
M  END
$$$$
Chlorhexidine
 OpenBabel03171423152D

 34 35  0  0  0  0  0  0  0  0999 V2000
    2.1434   -8.6625    0.0000 Cl  0  0  0  0  0  0  0  0  0  0  0  0
    2.8579   -9.0750    0.0000 C   0  0  0  0  0  0  0  0  0  0  0  0
    3.5724   -8.6625    0.0000 C   0  0  0  0  0  0  0  0  0  0  0  0
    4.2868   -9.0750    0.0000 C   0  0  0  0  0  0  0  0  0  0  0  0
    4.2868   -9.9000    0.0000 C   0  0  0  0  0  0  0  0  0  0  0  0
    5.0013  -10.3125    0.0000 N   0  0  0  0  0  0  0  0  0  0  0  0
    5.7158   -9.9000    0.0000 C   0  0  0  0  0  0  0  0  0  0  0  0
    5.7158   -9.0750    0.0000 N   0  0  0  0  0  0  0  0  0  0  0  0
    6.4302  -10.3125    0.0000 N   0  0  0  0  0  0  0  0  0  0  0  0
    7.1447   -9.9000    0.0000 C   0  0  0  0  0  0  0  0  0  0  0  0
    7.1447   -9.0750    0.0000 N   0  0  0  0  0  0  0  0  0  0  0  0
    7.8592  -10.3125    0.0000 N   0  0  0  0  0  0  0  0  0  0  0  0
    8.5737   -9.9000    0.0000 C   0  0  0  0  0  0  0  0  0  0  0  0
    9.2881  -10.3125    0.0000 C   0  0  0  0  0  0  0  0  0  0  0  0
   10.0026   -9.9000    0.0000 C   0  0  0  0  0  0  0  0  0  0  0  0
   10.7171  -10.3125    0.0000 C   0  0  0  0  0  0  0  0  0  0  0  0
   11.4315   -9.9000    0.0000 C   0  0  0  0  0  0  0  0  0  0  0  0
   12.1460  -10.3125    0.0000 C   0  0  0  0  0  0  0  0  0  0  0  0
   12.8605   -9.9000    0.0000 N   0  0  0  0  0  0  0  0  0  0  0  0
   13.5749  -10.3125    0.0000 C   0  0  0  0  0  0  0  0  0  0  0  0
   13.5749  -11.1375    0.0000 N   0  0  0  0  0  0  0  0  0  0  0  0
   14.2894   -9.9000    0.0000 N   0  0  0  0  0  0  0  0  0  0  0  0
   15.0039  -10.3125    0.0000 C   0  0  0  0  0  0  0  0  0  0  0  0
   15.0039  -11.1375    0.0000 N   0  0  0  0  0  0  0  0  0  0  0  0
   15.7184   -9.9000    0.0000 N   0  0  0  0  0  0  0  0  0  0  0  0
   16.4328  -10.3125    0.0000 C   0  0  0  0  0  0  0  0  0  0  0  0
   17.1473   -9.9000    0.0000 C   0  0  0  0  0  0  0  0  0  0  0  0
   17.8618  -10.3125    0.0000 C   0  0  0  0  0  0  0  0  0  0  0  0
   17.8618  -11.1375    0.0000 C   0  0  0  0  0  0  0  0  0  0  0  0
   18.5762  -11.5500    0.0000 Cl  0  0  0  0  0  0  0  0  0  0  0  0
   17.1473  -11.5500    0.0000 C   0  0  0  0  0  0  0  0  0  0  0  0
   16.4328  -11.1375    0.0000 C   0  0  0  0  0  0  0  0  0  0  0  0
    3.5724  -10.3125    0.0000 C   0  0  0  0  0  0  0  0  0  0  0  0
    2.8579   -9.9000    0.0000 C   0  0  0  0  0  0  0  0  0  0  0  0
  1  2  1  0  0  0  0
  2  3  2  0  0  0  0
  2 34  1  0  0  0  0
  3  4  1  0  0  0  0
  4  5  2  0  0  0  0
  5  6  1  0  0  0  0
  5 33  1  0  0  0  0
  6  7  1  0  0  0  0
  7  8  2  0  0  0  0
  7  9  1  0  0  0  0
  9 10  1  0  0  0  0
 10 11  2  0  0  0  0
 10 12  1  0  0  0  0
 12 13  1  0  0  0  0
 13 14  1  0  0  0  0
 14 15  1  0  0  0  0
 15 16  1  0  0  0  0
 16 17  1  0  0  0  0
 17 18  1  0  0  0  0
 18 19  1  0  0  0  0
 19 20  1  0  0  0  0
 20 21  2  0  0  0  0
 20 22  1  0  0  0  0
 22 23  1  0  0  0  0
 23 24  2  0  0  0  0
 23 25  1  0  0  0  0
 25 26  1  0  0  0  0
 26 27  2  0  0  0  0
 26 32  1  0  0  0  0
 27 28  1  0  0  0  0
 28 29  2  0  0  0  0
 29 30  1  0  0  0  0
 29 31  1  0  0  0  0
 31 32  2  0  0  0  0
 33 34  2  0  0  0  0
M  END
$$$$
triflusulfuron-methyl
 OpenBabel03171423152D

 32 33  0  0  0  0  0  0  0  0999 V2000
   -2.1434   -2.0625    0.0000 C   0  0  0  0  0  0  0  0  0  0  0  0
   -1.4289   -2.4750    0.0000 N   0  0  0  0  0  0  0  0  0  0  0  0
   -0.7145   -2.0625    0.0000 C   0  0  0  0  0  0  0  0  0  0  0  0
   -1.4289   -3.3000    0.0000 C   0  0  0  0  0  0  0  0  0  0  0  0
   -0.7145   -3.7125    0.0000 N   0  0  0  0  0  0  0  0  0  0  0  0
   -0.7145   -4.5375    0.0000 C   0  0  0  0  0  0  0  0  0  0  0  0
    0.0000   -4.9500    0.0000 N   0  0  0  0  0  0  0  0  0  0  0  0
    0.7145   -4.5375    0.0000 C   0  0  0  0  0  0  0  0  0  0  0  0
    0.7145   -3.7125    0.0000 O   0  0  0  0  0  0  0  0  0  0  0  0
    1.4289   -4.9500    0.0000 N   0  0  0  0  0  0  0  0  0  0  0  0
    2.1434   -4.5375    0.0000 S   0  0  0  0  0  0  0  0  0  0  0  0
    1.7309   -3.8230    0.0000 O   0  0  0  0  0  0  0  0  0  0  0  0
    2.5559   -5.2520    0.0000 O   0  0  0  0  0  0  0  0  0  0  0  0
    2.8579   -4.1250    0.0000 C   0  0  0  0  0  0  0  0  0  0  0  0
    2.8579   -3.3000    0.0000 C   0  0  0  0  0  0  0  0  0  0  0  0
    2.1434   -2.8875    0.0000 C   0  0  0  0  0  0  0  0  0  0  0  0
    3.5724   -2.8875    0.0000 C   0  0  0  0  0  0  0  0  0  0  0  0
    4.2868   -3.3000    0.0000 C   0  0  0  0  0  0  0  0  0  0  0  0
    4.2868   -4.1250    0.0000 C   0  0  0  0  0  0  0  0  0  0  0  0
    3.5724   -4.5375    0.0000 C   0  0  0  0  0  0  0  0  0  0  0  0
    3.5724   -5.3625    0.0000 C   0  0  0  0  0  0  0  0  0  0  0  0
    2.8579   -5.7750    0.0000 O   0  0  0  0  0  0  0  0  0  0  0  0
    4.2868   -5.7750    0.0000 O   0  0  0  0  0  0  0  0  0  0  0  0
   -1.4289   -4.9500    0.0000 N   0  0  0  0  0  0  0  0  0  0  0  0
   -2.1434   -4.5375    0.0000 C   0  0  0  0  0  0  0  0  0  0  0  0
   -2.8579   -4.9500    0.0000 O   0  0  0  0  0  0  0  0  0  0  0  0
   -3.5724   -4.5375    0.0000 C   0  0  0  0  0  0  0  0  0  0  0  0
   -4.2868   -4.9500    0.0000 C   0  0  0  0  0  0  0  0  0  0  0  0
   -5.0013   -5.3625    0.0000 F   0  0  0  0  0  0  0  0  0  0  0  0
   -4.6993   -4.2355    0.0000 F   0  0  0  0  0  0  0  0  0  0  0  0
   -3.8743   -5.6645    0.0000 F   0  0  0  0  0  0  0  0  0  0  0  0
   -2.1434   -3.7125    0.0000 N   0  0  0  0  0  0  0  0  0  0  0  0
  1  2  1  0  0  0  0
  2  3  1  0  0  0  0
  2  4  1  0  0  0  0
  4  5  2  0  0  0  0
  4 32  1  0  0  0  0
  5  6  1  0  0  0  0
  6  7  1  0  0  0  0
  6 24  2  0  0  0  0
  7  8  1  0  0  0  0
  8  9  2  0  0  0  0
  8 10  1  0  0  0  0
 10 11  1  0  0  0  0
 11 12  2  0  0  0  0
 11 13  2  0  0  0  0
 11 14  1  0  0  0  0
 14 15  2  0  0  0  0
 14 20  1  0  0  0  0
 15 16  1  0  0  0  0
 15 17  1  0  0  0  0
 17 18  2  0  0  0  0
 18 19  1  0  0  0  0
 19 20  2  0  0  0  0
 20 21  1  0  0  0  0
 21 22  1  0  0  0  0
 21 23  2  0  0  0  0
 24 25  1  0  0  0  0
 25 26  1  0  0  0  0
 25 32  2  0  0  0  0
 26 27  1  0  0  0  0
 27 28  1  0  0  0  0
 28 29  1  0  0  0  0
 28 30  1  0  0  0  0
 28 31  1  0  0  0  0
M  END
>  <type>
common

$$$$
cacodylate ion
 OpenBabel03171423152D

  5  4  0  0  0  0  0  0  0  0999 V2000
    0.8250   -0.8250    0.0000 C   0  0  0  0  0  0  0  0  0  0  0  0
    0.8250    0.0000    0.0000 As  0  0  0  0  0  0  0  0  0  0  0  0
    0.8250    0.8250    0.0000 C   0  0  0  0  0  0  0  0  0  0  0  0
    1.6500   -0.0000    0.0000 O   0  5  0  0  0  0  0  0  0  0  0  0
    0.0000    0.0000    0.0000 O   0  0  0  0  0  0  0  0  0  0  0  0
  1  2  1  0  0  0  0
  2  3  1  0  0  0  0
  2  4  1  0  0  0  0
  2  5  2  0  0  0  0
M  CHG  1   4  -1
M  END
$$$$
pirate
 OpenBabel03171423152D

 23 24  0  0  0  0  0  0  0  0999 V2000
   -0.7145    1.2375    0.0000 C   0  0  0  0  0  0  0  0  0  0  0  0
    0.0000    0.8250    0.0000 C   0  0  0  0  0  0  0  0  0  0  0  0
    0.0000   -0.0000    0.0000 O   0  0  0  0  0  0  0  0  0  0  0  0
    0.7145   -0.4125    0.0000 C   0  0  0  0  0  0  0  0  0  0  0  0
    0.7145   -1.2375    0.0000 N   0  0  0  0  0  0  0  0  0  0  0  0
    1.3819   -1.7224    0.0000 C   0  0  0  0  0  0  0  0  0  0  0  0
    1.1270   -2.5070    0.0000 C   0  0  0  0  0  0  0  0  0  0  0  0
    1.6119   -3.1745    0.0000 C   0  0  0  0  0  0  0  0  0  0  0  0
    2.0968   -3.8419    0.0000 N   0  0  0  0  0  0  0  0  0  0  0  0
    0.3020   -2.5070    0.0000 C   0  0  0  0  0  0  0  0  0  0  0  0
   -0.1830   -3.1745    0.0000 Br  0  0  0  0  0  0  0  0  0  0  0  0
    0.0470   -1.7224    0.0000 C   0  0  0  0  0  0  0  0  0  0  0  0
   -0.7376   -1.4675    0.0000 C   0  0  0  0  0  0  0  0  0  0  0  0
   -1.5222   -1.2125    0.0000 F   0  0  0  0  0  0  0  0  0  0  0  0
   -0.4827   -0.6829    0.0000 F   0  0  0  0  0  0  0  0  0  0  0  0
   -0.9925   -2.2521    0.0000 F   0  0  0  0  0  0  0  0  0  0  0  0
    2.1665   -1.4675    0.0000 C   0  0  0  0  0  0  0  0  0  0  0  0
    2.3381   -0.6605    0.0000 C   0  0  0  0  0  0  0  0  0  0  0  0
    3.1227   -0.4056    0.0000 C   0  0  0  0  0  0  0  0  0  0  0  0
    3.7358   -0.9576    0.0000 C   0  0  0  0  0  0  0  0  0  0  0  0
    4.5204   -0.7027    0.0000 Cl  0  0  0  0  0  0  0  0  0  0  0  0
    3.5642   -1.7646    0.0000 C   0  0  0  0  0  0  0  0  0  0  0  0
    2.7796   -2.0195    0.0000 C   0  0  0  0  0  0  0  0  0  0  0  0
  1  2  1  0  0  0  0
  2  3  1  0  0  0  0
  3  4  1  0  0  0  0
  4  5  1  0  0  0  0
  5  6  1  0  0  0  0
  5 12  1  0  0  0  0
  6  7  2  0  0  0  0
  6 17  1  0  0  0  0
  7  8  1  0  0  0  0
  7 10  1  0  0  0  0
  8  9  3  0  0  0  0
 10 11  1  0  0  0  0
 10 12  2  0  0  0  0
 12 13  1  0  0  0  0
 13 14  1  0  0  0  0
 13 15  1  0  0  0  0
 13 16  1  0  0  0  0
 17 18  2  0  0  0  0
 17 23  1  0  0  0  0
 18 19  1  0  0  0  0
 19 20  2  0  0  0  0
 20 21  1  0  0  0  0
 20 22  1  0  0  0  0
 22 23  2  0  0  0  0
M  END
$$$$
retard
 OpenBabel03171423152D

  8  8  0  0  0  0  0  0  0  0999 V2000
    0.7145    2.0625    0.0000 O   0  0  0  0  0  0  0  0  0  0  0  0
    0.7145    1.2375    0.0000 C   0  0  0  0  0  0  0  0  0  0  0  0
    1.4289    0.8250    0.0000 N   0  0  0  0  0  0  0  0  0  0  0  0
    1.4289   -0.0000    0.0000 N   0  0  0  0  0  0  0  0  0  0  0  0
    0.7145   -0.4125    0.0000 C   0  0  0  0  0  0  0  0  0  0  0  0
    0.7145   -1.2375    0.0000 O   0  0  0  0  0  0  0  0  0  0  0  0
    0.0000    0.0000    0.0000 C   0  0  0  0  0  0  0  0  0  0  0  0
    0.0000    0.8250    0.0000 C   0  0  0  0  0  0  0  0  0  0  0  0
  1  2  2  0  0  0  0
  2  3  1  0  0  0  0
  2  8  1  0  0  0  0
  3  4  1  0  0  0  0
  4  5  1  0  0  0  0
  5  6  2  0  0  0  0
  5  7  1  0  0  0  0
  7  8  2  0  0  0  0
M  END
$$$$
CCC(O)OC(CC)O.CC(COCC(C)O)O
 OpenBabel03171423152D

 18 16  0  0  0  0  0  0  0  0999 V2000
   -2.1434   -0.0458    0.0000 C   0  0  0  0  0  0  0  0  0  0  0  0
   -1.4289   -0.4583    0.0000 C   0  0  0  0  0  0  0  0  0  0  0  0
   -0.7145   -0.0458    0.0000 C   0  0  3  0  0  0  0  0  0  0  0  0
   -0.7145    0.7792    0.0000 O   0  0  0  0  0  0  0  0  0  0  0  0
    0.0000   -0.4583    0.0000 O   0  0  0  0  0  0  0  0  0  0  0  0
    0.7145   -0.0458    0.0000 C   0  0  3  0  0  0  0  0  0  0  0  0
    1.4289   -0.4583    0.0000 C   0  0  0  0  0  0  0  0  0  0  0  0
    2.1434   -0.0458    0.0000 C   0  0  0  0  0  0  0  0  0  0  0  0
    0.7145    0.7792    0.0000 O   0  0  0  0  0  0  0  0  0  0  0  0
    4.3827    0.4125    0.0000 C   0  0  0  0  0  0  0  0  0  0  0  0
    5.0972    0.0000    0.0000 C   0  0  3  0  0  0  0  0  0  0  0  0
    5.8116    0.4125    0.0000 C   0  0  0  0  0  0  0  0  0  0  0  0
    6.5261   -0.0000    0.0000 O   0  0  0  0  0  0  0  0  0  0  0  0
    7.2406    0.4125    0.0000 C   0  0  0  0  0  0  0  0  0  0  0  0
    7.9551   -0.0000    0.0000 C   0  0  3  0  0  0  0  0  0  0  0  0
    8.6695    0.4125    0.0000 C   0  0  0  0  0  0  0  0  0  0  0  0
    7.9551   -0.8250    0.0000 O   0  0  0  0  0  0  0  0  0  0  0  0
    5.0972   -0.8250    0.0000 O   0  0  0  0  0  0  0  0  0  0  0  0
  1  2  1  0  0  0  0
  2  3  1  0  0  0  0
  3  4  1  0  0  0  0
  3  5  1  0  0  0  0
  5  6  1  0  0  0  0
  6  7  1  0  0  0  0
  6  9  1  0  0  0  0
  7  8  1  0  0  0  0
 10 11  1  0  0  0  0
 11 12  1  0  0  0  0
 11 18  1  0  0  0  0
 12 13  1  0  0  0  0
 13 14  1  0  0  0  0
 14 15  1  0  0  0  0
 15 16  1  0  0  0  0
 15 17  1  0  0  0  0
M  END
$$$$
Acetate
 OpenBabel03171423152D

  4  3  0  0  0  0  0  0  0  0999 V2000
    1.2375    0.7145    0.0000 C   0  0  0  0  0  0  0  0  0  0  0  0
    0.8250    0.0000    0.0000 C   0  0  0  0  0  0  0  0  0  0  0  0
    1.2375   -0.7145    0.0000 O   0  5  0  0  0  0  0  0  0  0  0  0
    0.0000    0.0000    0.0000 O   0  0  0  0  0  0  0  0  0  0  0  0
  1  2  1  0  0  0  0
  2  3  1  0  0  0  0
  2  4  2  0  0  0  0
M  CHG  1   3  -1
M  END
$$$$
oxide
 OpenBabel03171423152D

  1  0  0  0  0  0  0  0  0  0999 V2000
    0.8250    0.0000    0.0000 O   0  5  0  0  0  0  0  0  0  0  0  0
M  CHG  1   1  -1
M  END
>  <type>
common

$$$$
ammonium
 OpenBabel03171423152D

  1  0  0  0  0  0  0  0  0  0999 V2000
    0.0000    0.0000    0.0000 N   0  3  0  0  0  0  0  0  0  0  0  0
M  CHG  1   1   1
M  END
$$$$
sorbitan monooleate
 OpenBabel03171423152D

 30 30  0  0  0  0  0  0  0  0999 V2000
   -4.0183   -1.8406    0.0000 C   0  0  0  0  0  0  0  0  0  0  0  0
   -4.0183   -2.6656    0.0000 C   0  0  0  0  0  0  0  0  0  0  0  0
   -3.3038   -3.0781    0.0000 C   0  0  0  0  0  0  0  0  0  0  0  0
   -3.3038   -3.9031    0.0000 C   0  0  0  0  0  0  0  0  0  0  0  0
   -2.5893   -4.3156    0.0000 C   0  0  0  0  0  0  0  0  0  0  0  0
   -2.5893   -5.1406    0.0000 C   0  0  0  0  0  0  0  0  0  0  0  0
   -1.8748   -5.5531    0.0000 C   0  0  0  0  0  0  0  0  0  0  0  0
   -1.8748   -6.3781    0.0000 C   0  0  0  0  0  0  0  0  0  0  0  0
   -1.1604   -6.7906    0.0000 C   0  0  0  0  0  0  0  0  0  0  0  0
   -1.1604   -7.6156    0.0000 C   0  0  0  0  0  0  0  0  0  0  0  0
   -0.4459   -8.0281    0.0000 C   0  0  0  0  0  0  0  0  0  0  0  0
    0.2686   -7.6156    0.0000 C   0  0  0  0  0  0  0  0  0  0  0  0
    0.9830   -8.0281    0.0000 C   0  0  0  0  0  0  0  0  0  0  0  0
    1.6975   -7.6156    0.0000 C   0  0  0  0  0  0  0  0  0  0  0  0
    2.4120   -8.0281    0.0000 C   0  0  0  0  0  0  0  0  0  0  0  0
    3.1264   -7.6156    0.0000 C   0  0  0  0  0  0  0  0  0  0  0  0
    3.8409   -8.0281    0.0000 C   0  0  0  0  0  0  0  0  0  0  0  0
    4.5554   -7.6156    0.0000 C   0  0  0  0  0  0  0  0  0  0  0  0
    4.5554   -6.7906    0.0000 O   0  0  0  0  0  0  0  0  0  0  0  0
    5.2699   -8.0281    0.0000 O   0  0  0  0  0  0  0  0  0  0  0  0
    5.9843   -7.6156    0.0000 C   0  0  0  0  0  0  0  0  0  0  0  0
    6.6988   -8.0281    0.0000 C   0  0  3  0  0  0  0  0  0  0  0  0
    6.6988   -8.8531    0.0000 O   0  0  0  0  0  0  0  0  0  0  0  0
    7.4133   -7.6156    0.0000 C   0  0  3  0  0  0  0  0  0  0  0  0
    7.4995   -6.7952    0.0000 O   0  0  0  0  0  0  0  0  0  0  0  0
    8.3065   -6.6236    0.0000 C   0  0  0  0  0  0  0  0  0  0  0  0
    8.7190   -7.3381    0.0000 C   0  0  3  0  0  0  0  0  0  0  0  0
    9.5395   -7.4243    0.0000 O   0  0  0  0  0  0  0  0  0  0  0  0
    8.1669   -7.9512    0.0000 C   0  0  3  0  0  0  0  0  0  0  0  0
    8.3385   -8.7582    0.0000 O   0  0  0  0  0  0  0  0  0  0  0  0
  1  2  1  0  0  0  0
  2  3  1  0  0  0  0
  3  4  1  0  0  0  0
  4  5  1  0  0  0  0
  5  6  1  0  0  0  0
  6  7  1  0  0  0  0
  7  8  1  0  0  0  0
  8  9  1  0  0  0  0
  9 10  2  0  0  0  0
 10 11  1  0  0  0  0
 11 12  1  0  0  0  0
 12 13  1  0  0  0  0
 13 14  1  0  0  0  0
 14 15  1  0  0  0  0
 15 16  1  0  0  0  0
 16 17  1  0  0  0  0
 17 18  1  0  0  0  0
 18 19  2  0  0  0  0
 18 20  1  0  0  0  0
 20 21  1  0  0  0  0
 21 22  1  0  0  0  0
 22 23  1  0  0  0  0
 22 24  1  0  0  0  0
 24 25  1  0  0  0  0
 24 29  1  0  0  0  0
 25 26  1  0  0  0  0
 26 27  1  0  0  0  0
 27 28  1  0  0  0  0
 27 29  1  0  0  0  0
 29 30  1  0  0  0  0
M  END
$$$$
resmethrin
 OpenBabel03171423152D

 25 27  0  0  0  0  0  0  0  0999 V2000
    8.1813   -4.1259    0.0000 C   0  0  0  0  0  0  0  0  0  0  0  0
    7.4669   -3.7134    0.0000 C   0  0  0  0  0  0  0  0  0  0  0  0
    7.4669   -2.8884    0.0000 C   0  0  0  0  0  0  0  0  0  0  0  0
    6.7524   -4.1259    0.0000 C   0  0  0  0  0  0  0  0  0  0  0  0
    6.0379   -3.7134    0.0000 C   0  0  3  0  0  0  0  0  0  0  0  0
    5.2129   -3.7134    0.0000 C   0  0  3  0  0  0  0  0  0  0  0  0
    4.4985   -4.1259    0.0000 C   0  0  0  0  0  0  0  0  0  0  0  0
    3.7840   -3.7134    0.0000 O   0  0  0  0  0  0  0  0  0  0  0  0
    4.4985   -4.9509    0.0000 O   0  0  0  0  0  0  0  0  0  0  0  0
    3.7840   -5.3634    0.0000 C   0  0  0  0  0  0  0  0  0  0  0  0
    3.7840   -6.1884    0.0000 C   0  0  0  0  0  0  0  0  0  0  0  0
    4.4514   -6.6734    0.0000 C   0  0  0  0  0  0  0  0  0  0  0  0
    4.1965   -7.4580    0.0000 O   0  0  0  0  0  0  0  0  0  0  0  0
    3.3715   -7.4580    0.0000 C   0  0  0  0  0  0  0  0  0  0  0  0
    2.8866   -8.1254    0.0000 C   0  0  0  0  0  0  0  0  0  0  0  0
    2.0661   -8.0392    0.0000 C   0  0  0  0  0  0  0  0  0  0  0  0
    1.5812   -8.7066    0.0000 C   0  0  0  0  0  0  0  0  0  0  0  0
    0.7607   -8.6204    0.0000 C   0  0  0  0  0  0  0  0  0  0  0  0
    0.4251   -7.8667    0.0000 C   0  0  0  0  0  0  0  0  0  0  0  0
    0.9100   -7.1993    0.0000 C   0  0  0  0  0  0  0  0  0  0  0  0
    1.7305   -7.2855    0.0000 C   0  0  0  0  0  0  0  0  0  0  0  0
    3.1165   -6.6734    0.0000 C   0  0  0  0  0  0  0  0  0  0  0  0
    5.6254   -2.9990    0.0000 C   0  0  0  0  0  0  0  0  0  0  0  0
    5.1522   -2.3232    0.0000 C   0  0  0  0  0  0  0  0  0  0  0  0
    6.0986   -2.3232    0.0000 C   0  0  0  0  0  0  0  0  0  0  0  0
  1  2  1  0  0  0  0
  2  3  1  0  0  0  0
  2  4  2  0  0  0  0
  4  5  1  0  0  0  0
  5  6  1  0  0  0  0
  5 23  1  0  0  0  0
  6  7  1  0  0  0  0
  6 23  1  0  0  0  0
  7  8  2  0  0  0  0
  7  9  1  0  0  0  0
  9 10  1  0  0  0  0
 10 11  1  0  0  0  0
 11 12  2  0  0  0  0
 11 22  1  0  0  0  0
 12 13  1  0  0  0  0
 13 14  1  0  0  0  0
 14 15  1  0  0  0  0
 14 22  2  0  0  0  0
 15 16  1  0  0  0  0
 16 17  2  0  0  0  0
 16 21  1  0  0  0  0
 17 18  1  0  0  0  0
 18 19  2  0  0  0  0
 19 20  1  0  0  0  0
 20 21  2  0  0  0  0
 23 24  1  0  0  0  0
 23 25  1  0  0  0  0
M  END
$$$$
Kaptan
 OpenBabel03171423152D

 16 17  0  0  0  0  0  0  0  0999 V2000
   -0.9962   -2.1269    0.0000 Cl  0  0  0  0  0  0  0  0  0  0  0  0
   -0.5837   -1.4124    0.0000 C   0  0  0  0  0  0  0  0  0  0  0  0
    0.1308   -1.8249    0.0000 Cl  0  0  0  0  0  0  0  0  0  0  0  0
   -1.2982   -0.9999    0.0000 Cl  0  0  0  0  0  0  0  0  0  0  0  0
   -0.1712   -0.6979    0.0000 S   0  0  0  0  0  0  0  0  0  0  0  0
    0.6538   -0.6979    0.0000 N   0  0  0  0  0  0  0  0  0  0  0  0
    1.1387   -0.0305    0.0000 C   0  0  0  0  0  0  0  0  0  0  0  0
    0.8838    0.7541    0.0000 O   0  0  0  0  0  0  0  0  0  0  0  0
    1.9233   -0.2854    0.0000 C   0  0  3  0  0  0  0  0  0  0  0  0
    2.6378    0.1271    0.0000 C   0  0  0  0  0  0  0  0  0  0  0  0
    3.3523   -0.2854    0.0000 C   0  0  0  0  0  0  0  0  0  0  0  0
    3.3523   -1.1104    0.0000 C   0  0  0  0  0  0  0  0  0  0  0  0
    2.6378   -1.5229    0.0000 C   0  0  0  0  0  0  0  0  0  0  0  0
    1.9233   -1.1104    0.0000 C   0  0  3  0  0  0  0  0  0  0  0  0
    1.1387   -1.3654    0.0000 C   0  0  0  0  0  0  0  0  0  0  0  0
    0.8838   -2.1500    0.0000 O   0  0  0  0  0  0  0  0  0  0  0  0
  1  2  1  0  0  0  0
  2  3  1  0  0  0  0
  2  4  1  0  0  0  0
  2  5  1  0  0  0  0
  5  6  1  0  0  0  0
  6  7  1  0  0  0  0
  6 15  1  0  0  0  0
  7  8  2  0  0  0  0
  7  9  1  0  0  0  0
  9 10  1  0  0  0  0
  9 14  1  0  0  0  0
 10 11  1  0  0  0  0
 11 12  2  0  0  0  0
 12 13  1  0  0  0  0
 13 14  1  0  0  0  0
 14 15  1  0  0  0  0
 15 16  2  0  0  0  0
M  END
$$$$
1,3,5-triazin-2,4,6-triol
 OpenBabel03171423152D

  9  9  0  0  0  0  0  0  0  0999 V2000
    0.7145    2.0625    0.0000 O   0  0  0  0  0  0  0  0  0  0  0  0
    0.7145    1.2375    0.0000 C   0  0  0  0  0  0  0  0  0  0  0  0
    1.4289    0.8250    0.0000 N   0  0  0  0  0  0  0  0  0  0  0  0
    1.4289   -0.0000    0.0000 C   0  0  0  0  0  0  0  0  0  0  0  0
    2.1434   -0.4125    0.0000 O   0  0  0  0  0  0  0  0  0  0  0  0
    0.7145   -0.4125    0.0000 N   0  0  0  0  0  0  0  0  0  0  0  0
    0.0000    0.0000    0.0000 C   0  0  0  0  0  0  0  0  0  0  0  0
   -0.7145   -0.4125    0.0000 O   0  0  0  0  0  0  0  0  0  0  0  0
    0.0000    0.8250    0.0000 N   0  0  0  0  0  0  0  0  0  0  0  0
  1  2  1  0  0  0  0
  2  3  2  0  0  0  0
  2  9  1  0  0  0  0
  3  4  1  0  0  0  0
  4  5  1  0  0  0  0
  4  6  2  0  0  0  0
  6  7  1  0  0  0  0
  7  8  1  0  0  0  0
  7  9  2  0  0  0  0
M  END
$$$$
metaborate
 OpenBabel03171423152D

 10  9  0  0  1  0  0  0  0  0999 V2000
    1.7605    1.8414    0.0000 O   0  5  0  0  0  0  0  0  0  0  0  0
    2.4750    0.6039    0.0000 O   0  5  0  0  0  0  0  0  0  0  0  0
    2.4750    1.4289    0.0000 B   0  0  0  0  0  0  0  0  0  0  0  0
    3.1895    1.8414    0.0000 O   0  0  0  0  0  0  0  0  0  0  0  0
    3.9039    0.6039    0.0000 O   0  5  0  0  0  0  0  0  0  0  0  0
    3.9039    1.4289    0.0000 B   0  0  0  0  0  0  0  0  0  0  0  0
    4.6184    1.8414    0.0000 O   0  0  0  0  0  0  0  0  0  0  0  0
    6.0474    1.8414    0.0000 O   0  5  0  0  0  0  0  0  0  0  0  0
    5.3329    1.4289    0.0000 B   0  0  0  0  0  0  0  0  0  0  0  0
    5.3329    0.6039    0.0000 O   0  5  0  0  0  0  0  0  0  0  0  0
  3  1  1  0  0  0  0
  3  2  1  0  0  0  0
  4  3  1  0  0  0  0
  6  4  1  0  0  0  0
  6  5  1  0  0  0  0
  7  6  1  0  0  0  0
  9  7  1  0  0  0  0
  9  8  1  0  0  0  0
 10  9  1  0  0  0  0
M  CHG  5   1  -1   2  -1   5  -1   8  -1  10  -1
M  END
>  <type>
common

$$$$
Didion
 OpenBabel03171423152D

 26 29  0  0  0  0  0  0  0  0999 V2000
   -1.8659    0.0165    0.0000 O   0  0  0  0  0  0  0  0  0  0  0  0
   -1.4534   -0.6979    0.0000 C   0  0  0  0  0  0  0  0  0  0  0  0
   -1.8659   -1.4124    0.0000 C   0  0  0  0  0  0  0  0  0  0  0  0
   -2.6909   -1.4124    0.0000 C   0  0  0  0  0  0  0  0  0  0  0  0
   -3.1034   -2.1269    0.0000 C   0  0  0  0  0  0  0  0  0  0  0  0
   -3.9284   -2.1269    0.0000 C   0  0  0  0  0  0  0  0  0  0  0  0
   -4.3409   -1.4124    0.0000 C   0  0  0  0  0  0  0  0  0  0  0  0
   -3.9284   -0.6979    0.0000 C   0  0  0  0  0  0  0  0  0  0  0  0
   -3.1034   -0.6979    0.0000 C   0  0  0  0  0  0  0  0  0  0  0  0
   -1.4534   -2.1269    0.0000 C   0  0  0  0  0  0  0  0  0  0  0  0
   -0.6284   -2.1269    0.0000 C   0  0  0  0  0  0  0  0  0  0  0  0
   -0.2159   -2.8414    0.0000 C   0  0  0  0  0  0  0  0  0  0  0  0
   -0.6284   -3.5558    0.0000 C   0  0  0  0  0  0  0  0  0  0  0  0
   -1.4534   -3.5558    0.0000 C   0  0  0  0  0  0  0  0  0  0  0  0
   -1.8659   -2.8414    0.0000 C   0  0  0  0  0  0  0  0  0  0  0  0
   -0.6284   -0.6979    0.0000 C   0  0  0  0  0  0  0  0  0  0  0  0
   -0.1435   -1.3654    0.0000 C   0  0  0  0  0  0  0  0  0  0  0  0
   -0.1435   -2.1904    0.0000 O   0  0  0  0  0  0  0  0  0  0  0  0
    0.6411   -1.1104    0.0000 C   0  0  0  0  0  0  0  0  0  0  0  0
    0.6411   -0.2854    0.0000 C   0  0  0  0  0  0  0  0  0  0  0  0
    1.3556    0.1271    0.0000 C   0  0  0  0  0  0  0  0  0  0  0  0
    2.0701   -0.2854    0.0000 C   0  0  0  0  0  0  0  0  0  0  0  0
    2.0701   -1.1104    0.0000 C   0  0  0  0  0  0  0  0  0  0  0  0
    1.3556   -1.5229    0.0000 C   0  0  0  0  0  0  0  0  0  0  0  0
   -0.1435   -0.0305    0.0000 C   0  0  0  0  0  0  0  0  0  0  0  0
   -0.3984    0.7541    0.0000 O   0  0  0  0  0  0  0  0  0  0  0  0
  1  2  2  0  0  0  0
  2  3  1  0  0  0  0
  2 16  1  0  0  0  0
  3  4  1  0  0  0  0
  3 10  1  0  0  0  0
  4  5  2  0  0  0  0
  4  9  1  0  0  0  0
  5  6  1  0  0  0  0
  6  7  2  0  0  0  0
  7  8  1  0  0  0  0
  8  9  2  0  0  0  0
 10 11  2  0  0  0  0
 10 15  1  0  0  0  0
 11 12  1  0  0  0  0
 12 13  2  0  0  0  0
 13 14  1  0  0  0  0
 14 15  2  0  0  0  0
 16 17  1  0  0  0  0
 16 25  1  0  0  0  0
 17 18  2  0  0  0  0
 17 19  1  0  0  0  0
 19 20  2  0  0  0  0
 19 24  1  0  0  0  0
 20 21  1  0  0  0  0
 20 25  1  0  0  0  0
 21 22  2  0  0  0  0
 22 23  1  0  0  0  0
 23 24  2  0  0  0  0
 25 26  2  0  0  0  0
M  END
$$$$
trisiloxane
 OpenBabel03171423152D

  5  4  0  0  0  0  0  0  0  0999 V2000
    2.4750   -1.4289    0.0000 Si  0  0  0  0  0  0  0  0  0  0  0  0
    2.0625   -0.7145    0.0000 O   0  0  0  0  0  0  0  0  0  0  0  0
    1.2375   -0.7145    0.0000 Si  0  0  0  0  0  0  0  0  0  0  0  0
    0.8250    0.0000    0.0000 O   0  0  0  0  0  0  0  0  0  0  0  0
    0.0000    0.0000    0.0000 Si  0  0  0  0  0  0  0  0  0  0  0  0
  1  2  1  0  0  0  0
  2  3  1  0  0  0  0
  3  4  1  0  0  0  0
  4  5  1  0  0  0  0
M  END
$$$$
Dichlorvos
 OpenBabel03171423152D

 11 10  0  0  0  0  0  0  0  0999 V2000
    3.3000    1.4289    0.0000 C   0  0  0  0  0  0  0  0  0  0  0  0
    2.8875    0.7145    0.0000 O   0  0  0  0  0  0  0  0  0  0  0  0
    2.0625    0.7145    0.0000 P   0  0  0  0  0  0  0  0  0  0  0  0
    2.0625    1.5395    0.0000 O   0  0  0  0  0  0  0  0  0  0  0  0
    2.0625   -0.1105    0.0000 O   0  0  0  0  0  0  0  0  0  0  0  0
    1.3480   -0.5230    0.0000 C   0  0  0  0  0  0  0  0  0  0  0  0
    1.2375    0.7145    0.0000 O   0  0  0  0  0  0  0  0  0  0  0  0
    0.8250    0.0000    0.0000 C   0  0  0  0  0  0  0  0  0  0  0  0
    0.0000    0.0000    0.0000 C   0  0  0  0  0  0  0  0  0  0  0  0
   -0.4125   -0.7145    0.0000 Cl  0  0  0  0  0  0  0  0  0  0  0  0
   -0.4125    0.7145    0.0000 Cl  0  0  0  0  0  0  0  0  0  0  0  0
  1  2  1  0  0  0  0
  2  3  1  0  0  0  0
  3  4  2  0  0  0  0
  3  5  1  0  0  0  0
  3  7  1  0  0  0  0
  5  6  1  0  0  0  0
  7  8  1  0  0  0  0
  8  9  2  0  0  0  0
  9 10  1  0  0  0  0
  9 11  1  0  0  0  0
M  END
$$$$
DIACETATE (9CI)
 OpenBabel03171423152D

  8  6  0  0  0  0  0  0  0  0999 V2000
    0.4125    0.7145    0.0000 O   0  5  0  0  0  0  0  0  0  0  0  0
    0.0000   -0.0000    0.0000 C   0  0  0  0  0  0  0  0  0  0  0  0
    0.4125   -0.7145    0.0000 O   0  0  0  0  0  0  0  0  0  0  0  0
   -0.8250   -0.0000    0.0000 C   0  0  0  0  0  0  0  0  0  0  0  0
    3.8893    0.7145    0.0000 O   0  5  0  0  0  0  0  0  0  0  0  0
    3.4768   -0.0000    0.0000 C   0  0  0  0  0  0  0  0  0  0  0  0
    3.8893   -0.7145    0.0000 O   0  0  0  0  0  0  0  0  0  0  0  0
    2.6518   -0.0000    0.0000 C   0  0  0  0  0  0  0  0  0  0  0  0
  1  2  1  0  0  0  0
  2  3  2  0  0  0  0
  2  4  1  0  0  0  0
  5  6  1  0  0  0  0
  6  7  2  0  0  0  0
  6  8  1  0  0  0  0
M  CHG  2   1  -1   5  -1
M  END
>  <type>
systematic

$$$$
InChI=1S/C48H72O14.C47H70O14/c1-11-25(2)43-28(5)17-18-47(62-43)23-34-20-33(61-47)16-15-27(4)42(26(3)13-12-14-32-24-55-45-40(49)29(6)19-35(46(51)58-34)48(32,45)52)59-39-22-37(54-10)44(31(8)57-39)60-38-21-36(53-9)41(50)30(7)56-38;1-24(2)41-27(5)16-17-46(61-41)22-33-19-32(60-46)15-14-26(4)42(25(3)12-11-13-31-23-54-44-39(48)28(6)18-34(45(50)57-33)47(31,44)51)58-38-21-36(53-10)43(30(8)56-38)59-37-20-35(52-9)40(49)29(7)55-37/h12-15,17-19,25-26,28,30-31,33-45,49-50,52H,11,16,20-24H2,1-10H3;11-14,16-18,24-25,27,29-30,32-44,48-49,51H,15,19-23H2,1-10H3/b13-12+,27-15+,32-14+;12-11+,26-14+,31-13+/t25-,26-,28-,30-,31-,33+,34-,35-,36-,37-,38-,39-,40+,41-,42-,43+,44-,45+,47+,48+;25-,27-,29-,30-,32+,33-,34-,35-,36-,37-,38-,39+,40-,41+,42-,43-,44+,46+,47+/m00/s1
 OpenBabel03171423152D

166178  0  0  0  0  0  0  0  0999 V2000
    4.6448    1.2445    0.0000 C   0  0  0  0  0  0  0  0  0  0  0  0
    3.1162    0.6233    0.0000 C   0  0  0  0  0  0  0  0  0  0  0  0
   -2.8849   -1.0445    0.0000 C   0  0  0  0  0  0  0  0  0  0  0  0
   -0.0541   -1.4364    0.0000 C   0  0  0  0  0  0  0  0  0  0  0  0
    3.4557    3.0749    0.0000 C   0  0  0  0  0  0  0  0  0  0  0  0
   -2.9174    5.1883    0.0000 C   0  0  0  0  0  0  0  0  0  0  0  0
    2.7768   -1.8283    0.0000 C   0  0  0  0  0  0  0  0  0  0  0  0
    1.2482   -2.4495    0.0000 C   0  0  0  0  0  0  0  0  0  0  0  0
    3.7397   -5.2931    0.0000 C   0  0  0  0  0  0  0  0  0  0  0  0
    0.1445   -5.2118    0.0000 C   0  0  0  0  0  0  0  0  0  0  0  0
    3.9937    1.7511    0.0000 C   0  0  0  0  0  0  0  0  0  0  0  0
   -2.6587    0.5900    0.0000 C   0  0  0  0  0  0  0  0  0  0  0  0
   -2.0075    0.0834    0.0000 C   0  0  0  0  0  0  0  0  0  0  0  0
   -2.5455    1.4072    0.0000 C   0  0  0  0  0  0  0  0  0  0  0  0
   -0.5921   -0.1126    0.0000 C   0  0  0  0  0  0  0  0  0  0  0  0
    0.1722    0.1980    0.0000 C   0  0  0  0  0  0  0  0  0  0  0  0
    2.0402    3.2709    0.0000 C   0  0  0  0  0  0  0  0  0  0  0  0
    1.2759    2.9603    0.0000 C   0  0  0  0  0  0  0  0  0  0  0  0
   -2.2440    3.9280    0.0000 C   0  0  0  0  0  0  0  0  0  0  0  0
   -0.3658    1.5218    0.0000 C   0  0  0  0  0  0  0  0  0  0  0  0
    2.4374   -4.2799    0.0000 C   0  0  0  0  0  0  0  0  0  0  0  0
   -1.0446   -3.3814    0.0000 C   0  0  0  0  0  0  0  0  0  0  0  0
    0.5116    2.6496    0.0000 C   0  0  0  0  0  0  0  0  0  0  0  0
   -4.0195    1.8545    0.0000 C   0  0  0  0  0  0  0  0  0  0  0  0
    3.2294    1.4405    0.0000 C   0  0  1  0  0  0  0  0  0  0  0  0
   -2.1206   -0.7338    0.0000 C   0  0  1  0  0  0  0  0  0  0  0  0
   -0.7052   -0.9298    0.0000 C   0  0  0  0  0  0  0  0  0  0  0  0
    2.6914    2.7643    0.0000 C   0  0  1  0  0  0  0  0  0  0  0  0
   -2.9445    4.3638    0.0000 C   0  0  0  0  0  0  0  0  0  0  0  0
    2.6637   -2.6455    0.0000 C   0  0  1  0  0  0  0  0  0  0  0  0
    0.4840   -2.7602    0.0000 C   0  0  1  0  0  0  0  0  0  0  0  0
   -3.1967    1.9137    0.0000 C   0  0  0  0  0  0  0  0  0  0  0  0
    0.2854    1.0152    0.0000 C   0  0  2  0  0  0  0  0  0  0  0  0
   -0.2526    2.3390    0.0000 C   0  0  1  0  0  0  0  0  0  0  0  0
   -2.3192    3.0416    0.0000 C   0  0  1  0  0  0  0  0  0  0  0  0
    3.2017   -3.9693    0.0000 C   0  0  1  0  0  0  0  0  0  0  0  0
   -0.3935   -3.8880    0.0000 C   0  0  1  0  0  0  0  0  0  0  0  0
    1.7863   -3.7733    0.0000 C   0  0  1  0  0  0  0  0  0  0  0  0
   -0.9315   -2.5642    0.0000 C   0  0  1  0  0  0  0  0  0  0  0  0
   -3.6722    3.9750    0.0000 C   0  0  2  0  0  0  0  0  0  0  0  0
    3.3148   -3.1521    0.0000 C   0  0  1  0  0  0  0  0  0  0  0  0
   -1.4695   -1.2404    0.0000 C   0  0  1  0  0  0  0  0  0  0  0  0
    2.5782    1.9471    0.0000 C   0  0  2  0  0  0  0  0  0  0  0  0
    0.3708   -3.5774    0.0000 C   0  0  1  0  0  0  0  0  0  0  0  0
   -3.6993    3.1504    0.0000 C   0  0  2  0  0  0  0  0  0  0  0  0
   -1.6681    2.5350    0.0000 C   0  0  0  0  0  0  0  0  0  0  0  0
    1.1628    2.1431    0.0000 C   0  0  1  0  0  0  0  0  0  0  0  0
   -3.0835    2.7310    0.0000 C   0  0  1  0  0  0  0  0  0  0  0  0
   -4.3727    4.4107    0.0000 O   0  0  0  0  0  0  0  0  0  0  0  0
    4.0791   -2.8415    0.0000 O   0  0  0  0  0  0  0  0  0  0  0  0
   -1.7812    1.7178    0.0000 O   0  0  0  0  0  0  0  0  0  0  0  0
   -2.9963    3.5513    0.0000 O   0  0  0  0  0  0  0  0  0  0  0  0
    3.8528   -4.4759    0.0000 O   0  0  0  0  0  0  0  0  0  0  0  0
   -0.5066   -4.7052    0.0000 O   0  0  0  0  0  0  0  0  0  0  0  0
   -4.3302    2.6188    0.0000 O   0  0  0  0  0  0  0  0  0  0  0  0
    1.8994   -2.9561    0.0000 O   0  0  0  0  0  0  0  0  0  0  0  0
   -0.1672   -2.2536    0.0000 O   0  0  0  0  0  0  0  0  0  0  0  0
   -0.9038    2.8456    0.0000 O   0  0  0  0  0  0  0  0  0  0  0  0
   -1.5826   -2.0576    0.0000 O   0  0  0  0  0  0  0  0  0  0  0  0
    1.0220   -4.0840    0.0000 O   0  0  0  0  0  0  0  0  0  0  0  0
    1.0497    1.3259    0.0000 O   0  0  0  0  0  0  0  0  0  0  0  0
    1.8139    1.6365    0.0000 O   0  0  0  0  0  0  0  0  0  0  0  0
   15.1326    1.7639    0.0000 C   0  0  0  0  0  0  0  0  0  0  0  0
   14.2552    0.6361    0.0000 C   0  0  0  0  0  0  0  0  0  0  0  0
    8.2540   -1.0316    0.0000 C   0  0  0  0  0  0  0  0  0  0  0  0
   11.0849   -1.4236    0.0000 C   0  0  0  0  0  0  0  0  0  0  0  0
   14.5946    3.0877    0.0000 C   0  0  0  0  0  0  0  0  0  0  0  0
    8.2215    5.2011    0.0000 C   0  0  0  0  0  0  0  0  0  0  0  0
   13.9158   -1.8155    0.0000 C   0  0  0  0  0  0  0  0  0  0  0  0
   12.3872   -2.4367    0.0000 C   0  0  0  0  0  0  0  0  0  0  0  0
   15.7561   -4.1525    0.0000 C   0  0  0  0  0  0  0  0  0  0  0  0
   11.2835   -5.1990    0.0000 C   0  0  0  0  0  0  0  0  0  0  0  0
    8.4803    0.6028    0.0000 C   0  0  0  0  0  0  0  0  0  0  0  0
    9.1314    0.0962    0.0000 C   0  0  0  0  0  0  0  0  0  0  0  0
    8.5934    1.4200    0.0000 C   0  0  0  0  0  0  0  0  0  0  0  0
   10.5469   -0.0998    0.0000 C   0  0  0  0  0  0  0  0  0  0  0  0
   11.3112    0.2108    0.0000 C   0  0  0  0  0  0  0  0  0  0  0  0
   13.1792    3.2837    0.0000 C   0  0  0  0  0  0  0  0  0  0  0  0
   12.4149    2.9731    0.0000 C   0  0  0  0  0  0  0  0  0  0  0  0
    8.8950    3.9408    0.0000 C   0  0  0  0  0  0  0  0  0  0  0  0
   10.7732    1.5346    0.0000 C   0  0  0  0  0  0  0  0  0  0  0  0
   13.5764   -4.2671    0.0000 C   0  0  0  0  0  0  0  0  0  0  0  0
   10.0943   -3.3686    0.0000 C   0  0  0  0  0  0  0  0  0  0  0  0
   11.6506    2.6625    0.0000 C   0  0  0  0  0  0  0  0  0  0  0  0
    7.1194    1.8673    0.0000 C   0  0  0  0  0  0  0  0  0  0  0  0
   14.3683    1.4533    0.0000 C   0  0  0  0  0  0  0  0  0  0  0  0
    9.0183   -0.7210    0.0000 C   0  0  1  0  0  0  0  0  0  0  0  0
   10.4338   -0.9170    0.0000 C   0  0  0  0  0  0  0  0  0  0  0  0
   13.8303    2.7771    0.0000 C   0  0  1  0  0  0  0  0  0  0  0  0
    8.1944    4.3766    0.0000 C   0  0  0  0  0  0  0  0  0  0  0  0
   13.8026   -2.6327    0.0000 C   0  0  1  0  0  0  0  0  0  0  0  0
   11.6229   -2.7474    0.0000 C   0  0  1  0  0  0  0  0  0  0  0  0
    7.9423    1.9266    0.0000 C   0  0  0  0  0  0  0  0  0  0  0  0
   11.4243    1.0280    0.0000 C   0  0  2  0  0  0  0  0  0  0  0  0
   10.8863    2.3518    0.0000 C   0  0  1  0  0  0  0  0  0  0  0  0
    8.8197    3.0544    0.0000 C   0  0  1  0  0  0  0  0  0  0  0  0
   14.3407   -3.9565    0.0000 C   0  0  1  0  0  0  0  0  0  0  0  0
   10.7455   -3.8752    0.0000 C   0  0  1  0  0  0  0  0  0  0  0  0
   12.9252   -3.7605    0.0000 C   0  0  1  0  0  0  0  0  0  0  0  0
   10.2075   -2.5514    0.0000 C   0  0  1  0  0  0  0  0  0  0  0  0
    7.4668    3.9878    0.0000 C   0  0  2  0  0  0  0  0  0  0  0  0
   14.4538   -3.1393    0.0000 C   0  0  1  0  0  0  0  0  0  0  0  0
   13.7172    1.9599    0.0000 C   0  0  2  0  0  0  0  0  0  0  0  0
    9.6695   -1.2276    0.0000 C   0  0  1  0  0  0  0  0  0  0  0  0
   11.5098   -3.5646    0.0000 C   0  0  1  0  0  0  0  0  0  0  0  0
    7.4397    3.1632    0.0000 C   0  0  2  0  0  0  0  0  0  0  0  0
    9.4709    2.5478    0.0000 C   0  0  0  0  0  0  0  0  0  0  0  0
   12.3018    2.1559    0.0000 C   0  0  1  0  0  0  0  0  0  0  0  0
    8.0554    2.7438    0.0000 C   0  0  1  0  0  0  0  0  0  0  0  0
    6.7663    4.4235    0.0000 O   0  0  0  0  0  0  0  0  0  0  0  0
   15.2181   -2.8287    0.0000 O   0  0  0  0  0  0  0  0  0  0  0  0
    9.3577    1.7306    0.0000 O   0  0  0  0  0  0  0  0  0  0  0  0
    8.1427    3.5641    0.0000 O   0  0  0  0  0  0  0  0  0  0  0  0
   14.9918   -4.4631    0.0000 O   0  0  0  0  0  0  0  0  0  0  0  0
   10.6323   -4.6924    0.0000 O   0  0  0  0  0  0  0  0  0  0  0  0
    6.8088    2.6316    0.0000 O   0  0  0  0  0  0  0  0  0  0  0  0
   13.0384   -2.9433    0.0000 O   0  0  0  0  0  0  0  0  0  0  0  0
   10.9718   -2.2408    0.0000 O   0  0  0  0  0  0  0  0  0  0  0  0
   10.2352    2.8584    0.0000 O   0  0  0  0  0  0  0  0  0  0  0  0
    9.5563   -2.0448    0.0000 O   0  0  0  0  0  0  0  0  0  0  0  0
   12.1609   -4.0711    0.0000 O   0  0  0  0  0  0  0  0  0  0  0  0
   12.1886    1.3387    0.0000 O   0  0  0  0  0  0  0  0  0  0  0  0
   12.9529    1.6493    0.0000 O   0  0  0  0  0  0  0  0  0  0  0  0
   -3.4229    0.2793    0.0000 H   0  0  0  0  0  0  0  0  0  0  0  0
   -1.3955    0.6367    0.0000 H   0  0  0  0  0  0  0  0  0  0  0  0
   -1.9336    1.9605    0.0000 H   0  0  0  0  0  0  0  0  0  0  0  0
   -1.3772    0.1407    0.0000 H   0  0  0  0  0  0  0  0  0  0  0  0
    3.8805    0.9339    0.0000 H   0  0  0  0  0  0  0  0  0  0  0  0
   -2.7718   -0.2272    0.0000 H   0  0  0  0  0  0  0  0  0  0  0  0
    2.8045    3.5815    0.0000 H   0  0  0  0  0  0  0  0  0  0  0  0
    3.2756   -2.0922    0.0000 H   0  0  0  0  0  0  0  0  0  0  0  0
    1.2691   -3.0135    0.0000 H   0  0  0  0  0  0  0  0  0  0  0  0
    0.9365    0.5087    0.0000 H   0  0  0  0  0  0  0  0  0  0  0  0
   -0.1395    3.1562    0.0000 H   0  0  0  0  0  0  0  0  0  0  0  0
   -1.5634    3.3723    0.0000 H   0  0  0  0  0  0  0  0  0  0  0  0
    3.0886   -4.7865    0.0000 H   0  0  0  0  0  0  0  0  0  0  0  0
   -1.1578   -4.1986    0.0000 H   0  0  0  0  0  0  0  0  0  0  0  0
    1.6731   -4.5905    0.0000 H   0  0  0  0  0  0  0  0  0  0  0  0
   -1.6958   -2.8748    0.0000 H   0  0  0  0  0  0  0  0  0  0  0  0
   -3.6451    4.7995    0.0000 H   0  0  0  0  0  0  0  0  0  0  0  0
    3.7007   -2.4229    0.0000 H   0  0  0  0  0  0  0  0  0  0  0  0
   -2.2338   -1.5510    0.0000 H   0  0  0  0  0  0  0  0  0  0  0  0
    3.3425    2.2577    0.0000 H   0  0  0  0  0  0  0  0  0  0  0  0
    1.1953   -3.5469    0.0000 H   0  0  0  0  0  0  0  0  0  0  0  0
   -4.4415    3.5105    0.0000 H   0  0  0  0  0  0  0  0  0  0  0  0
    7.7160    0.2922    0.0000 H   0  0  0  0  0  0  0  0  0  0  0  0
    9.7434    0.6495    0.0000 H   0  0  0  0  0  0  0  0  0  0  0  0
    9.2054    1.9733    0.0000 H   0  0  0  0  0  0  0  0  0  0  0  0
    9.7617    0.1536    0.0000 H   0  0  0  0  0  0  0  0  0  0  0  0
    8.3672   -0.2144    0.0000 H   0  0  0  0  0  0  0  0  0  0  0  0
   13.9435    3.5943    0.0000 H   0  0  0  0  0  0  0  0  0  0  0  0
   14.4146   -2.0794    0.0000 H   0  0  0  0  0  0  0  0  0  0  0  0
   12.4081   -3.0007    0.0000 H   0  0  0  0  0  0  0  0  0  0  0  0
   12.0755    0.5215    0.0000 H   0  0  0  0  0  0  0  0  0  0  0  0
   10.9995    3.1690    0.0000 H   0  0  0  0  0  0  0  0  0  0  0  0
    9.5755    3.3851    0.0000 H   0  0  0  0  0  0  0  0  0  0  0  0
   14.2275   -4.7737    0.0000 H   0  0  0  0  0  0  0  0  0  0  0  0
    9.9812   -4.1858    0.0000 H   0  0  0  0  0  0  0  0  0  0  0  0
   12.8121   -4.5777    0.0000 H   0  0  0  0  0  0  0  0  0  0  0  0
    9.4432   -2.8620    0.0000 H   0  0  0  0  0  0  0  0  0  0  0  0
    7.4939    4.8123    0.0000 H   0  0  0  0  0  0  0  0  0  0  0  0
   14.8396   -2.4101    0.0000 H   0  0  0  0  0  0  0  0  0  0  0  0
   14.4815    2.2705    0.0000 H   0  0  0  0  0  0  0  0  0  0  0  0
    8.9052   -1.5382    0.0000 H   0  0  0  0  0  0  0  0  0  0  0  0
   12.3342   -3.5341    0.0000 H   0  0  0  0  0  0  0  0  0  0  0  0
    6.6974    3.5233    0.0000 H   0  0  0  0  0  0  0  0  0  0  0  0
 11  1  1  0  0  0  0
 13 12  2  0  0  0  0
 14 12  1  0  0  0  0
 16 15  1  0  0  0  0
 18 17  2  0  0  0  0
 25  2  1  0  0  0  0
 25 11  1  0  0  0  0
 25128  1  1  0  0  0
 26  3  1  0  0  0  0
 26 13  1  0  0  0  0
 26129  1  6  0  0  0
 27  4  1  0  0  0  0
 27 15  2  0  0  0  0
 28  5  1  0  0  0  0
 28 17  1  0  0  0  0
 28130  1  1  0  0  0
 29  6  1  0  0  0  0
 29 19  2  0  0  0  0
 30  7  1  0  0  0  0
 30131  1  6  0  0  0
 31  8  1  0  0  0  0
 31132  1  6  0  0  0
 32 14  2  0  0  0  0
 32 24  1  0  0  0  0
 33 16  1  0  0  0  0
 33 20  1  0  0  0  0
 33133  1  1  0  0  0
 34 20  1  0  0  0  0
 34 23  1  0  0  0  0
 34134  1  1  0  0  0
 35 19  1  0  0  0  0
 35135  1  6  0  0  0
 36 21  1  0  0  0  0
 36 53  1  0  0  0  0
 36136  1  6  0  0  0
 37 22  1  0  0  0  0
 37 54  1  0  0  0  0
 37137  1  6  0  0  0
 38 21  1  0  0  0  0
 38 60  1  0  0  0  0
 38138  1  1  0  0  0
 39 22  1  0  0  0  0
 39 59  1  0  0  0  0
 39139  1  1  0  0  0
 40 29  1  0  0  0  0
 40 49  1  0  0  0  0
 40140  1  1  0  0  0
 41 30  1  0  0  0  0
 41 36  1  0  0  0  0
 41 50  1  0  0  0  0
 41141  1  1  0  0  0
 42 26  1  0  0  0  0
 42 27  1  0  0  0  0
 42 59  1  0  0  0  0
 42142  1  6  0  0  0
 43 25  1  0  0  0  0
 43 28  1  0  0  0  0
 43143  1  6  0  0  0
 44 31  1  0  0  0  0
 44 37  1  0  0  0  0
 44 60  1  0  0  0  0
 44144  1  1  0  0  0
 45 40  1  0  0  0  0
 45145  1  1  0  0  0
 46 35  1  0  0  0  0
 47 18  1  6  0  0  0
 47 23  1  0  0  0  0
 48 32  1  0  0  0  0
 48 35  1  0  0  0  0
 48 45  1  0  0  0  0
 48 52  1  1  0  0  0
 51 46  2  0  0  0  0
 53  9  1  0  0  0  0
 54 10  1  0  0  0  0
 55 24  1  0  0  0  0
 55 45  1  0  0  0  0
 56 30  1  0  0  0  0
 56 38  1  0  0  0  0
 57 31  1  0  0  0  0
 57 39  1  0  0  0  0
 58 34  1  0  0  0  0
 58 46  1  0  0  0  0
 61 33  1  0  0  0  0
 61 47  1  0  0  0  0
 62 43  1  0  0  0  0
 62 47  1  0  0  0  0
 74 73  2  0  0  0  0
 75 73  1  0  0  0  0
 77 76  1  0  0  0  0
 79 78  2  0  0  0  0
 86 63  1  0  0  0  0
 86 64  1  0  0  0  0
 87 65  1  0  0  0  0
 87 74  1  0  0  0  0
 87150  1  6  0  0  0
 88 66  1  0  0  0  0
 88 76  2  0  0  0  0
 89 67  1  0  0  0  0
 89 78  1  0  0  0  0
 89151  1  1  0  0  0
 90 68  1  0  0  0  0
 90 80  2  0  0  0  0
 91 69  1  0  0  0  0
 91152  1  6  0  0  0
 92 70  1  0  0  0  0
 92153  1  6  0  0  0
 93 75  2  0  0  0  0
 93 85  1  0  0  0  0
 94 77  1  0  0  0  0
 94 81  1  0  0  0  0
 94154  1  1  0  0  0
 95 81  1  0  0  0  0
 95 84  1  0  0  0  0
 95155  1  1  0  0  0
 96 80  1  0  0  0  0
 96156  1  6  0  0  0
 97 82  1  0  0  0  0
 97114  1  0  0  0  0
 97157  1  6  0  0  0
 98 83  1  0  0  0  0
 98115  1  0  0  0  0
 98158  1  6  0  0  0
 99 82  1  0  0  0  0
 99121  1  0  0  0  0
 99159  1  1  0  0  0
100 83  1  0  0  0  0
100120  1  0  0  0  0
100160  1  1  0  0  0
101 90  1  0  0  0  0
101110  1  0  0  0  0
101161  1  1  0  0  0
102 91  1  0  0  0  0
102 97  1  0  0  0  0
102111  1  0  0  0  0
102162  1  1  0  0  0
103 86  1  0  0  0  0
103 89  1  0  0  0  0
103163  1  6  0  0  0
104 87  1  0  0  0  0
104 88  1  0  0  0  0
104120  1  0  0  0  0
104164  1  6  0  0  0
105 92  1  0  0  0  0
105 98  1  0  0  0  0
105121  1  0  0  0  0
105165  1  1  0  0  0
106101  1  0  0  0  0
106166  1  1  0  0  0
107 96  1  0  0  0  0
108 79  1  6  0  0  0
108 84  1  0  0  0  0
109 93  1  0  0  0  0
109 96  1  0  0  0  0
109106  1  0  0  0  0
109113  1  1  0  0  0
112107  2  0  0  0  0
114 71  1  0  0  0  0
115 72  1  0  0  0  0
116 85  1  0  0  0  0
116106  1  0  0  0  0
117 91  1  0  0  0  0
117 99  1  0  0  0  0
118 92  1  0  0  0  0
118100  1  0  0  0  0
119 95  1  0  0  0  0
119107  1  0  0  0  0
122 94  1  0  0  0  0
122108  1  0  0  0  0
123103  1  0  0  0  0
123108  1  0  0  0  0
124 12  1  0  0  0  0
125 13  1  0  0  0  0
126 14  1  0  0  0  0
127 15  1  0  0  0  0
146 73  1  0  0  0  0
147 74  1  0  0  0  0
148 75  1  0  0  0  0
149 76  1  0  0  0  0
M  END
$$$$
Span 85
 OpenBabel03171423152D

 68 68  0  0  1  0  0  0  0  0999 V2000
   -4.9877   -3.1185    0.0000 C   0  0  0  0  0  0  0  0  0  0  0  0
   -4.2732   -3.5310    0.0000 C   0  0  0  0  0  0  0  0  0  0  0  0
   -4.2732   -4.3560    0.0000 C   0  0  0  0  0  0  0  0  0  0  0  0
   -3.5587   -4.7685    0.0000 C   0  0  0  0  0  0  0  0  0  0  0  0
   -3.5587   -5.5935    0.0000 C   0  0  0  0  0  0  0  0  0  0  0  0
   -2.8443   -6.0060    0.0000 C   0  0  0  0  0  0  0  0  0  0  0  0
   -2.8443   -6.8310    0.0000 C   0  0  0  0  0  0  0  0  0  0  0  0
   -2.1298   -7.2435    0.0000 C   0  0  0  0  0  0  0  0  0  0  0  0
   -2.1298   -8.0685    0.0000 C   0  0  0  0  0  0  0  0  0  0  0  0
   -1.4153   -8.4810    0.0000 C   0  0  0  0  0  0  0  0  0  0  0  0
   -0.7008   -8.0685    0.0000 C   0  0  0  0  0  0  0  0  0  0  0  0
   -0.7008   -7.2435    0.0000 C   0  0  0  0  0  0  0  0  0  0  0  0
    0.0136   -6.8310    0.0000 C   0  0  0  0  0  0  0  0  0  0  0  0
    0.0136   -6.0060    0.0000 C   0  0  0  0  0  0  0  0  0  0  0  0
    0.7281   -5.5935    0.0000 C   0  0  0  0  0  0  0  0  0  0  0  0
    0.7281   -4.7685    0.0000 C   0  0  0  0  0  0  0  0  0  0  0  0
    1.4426   -4.3560    0.0000 C   0  0  0  0  0  0  0  0  0  0  0  0
    1.4426   -3.5310    0.0000 C   0  0  0  0  0  0  0  0  0  0  0  0
    0.7281   -3.1185    0.0000 O   0  0  0  0  0  0  0  0  0  0  0  0
    2.1570   -3.1185    0.0000 O   0  0  0  0  0  0  0  0  0  0  0  0
    2.1570   -2.2935    0.0000 C   0  0  0  0  0  0  0  0  0  0  0  0
    2.8715   -1.8810    0.0000 C   0  0  1  0  0  0  0  0  0  0  0  0
    3.5860   -2.2935    0.0000 O   0  0  0  0  0  0  0  0  0  0  0  0
    3.5860   -3.1185    0.0000 C   0  0  0  0  0  0  0  0  0  0  0  0
    2.8715   -3.5310    0.0000 O   0  0  0  0  0  0  0  0  0  0  0  0
    4.3004   -3.5310    0.0000 C   0  0  0  0  0  0  0  0  0  0  0  0
    4.3004   -4.3560    0.0000 C   0  0  0  0  0  0  0  0  0  0  0  0
    5.0149   -4.7685    0.0000 C   0  0  0  0  0  0  0  0  0  0  0  0
    5.0149   -5.5935    0.0000 C   0  0  0  0  0  0  0  0  0  0  0  0
    5.7294   -6.0060    0.0000 C   0  0  0  0  0  0  0  0  0  0  0  0
    5.7294   -6.8310    0.0000 C   0  0  0  0  0  0  0  0  0  0  0  0
    6.4439   -7.2435    0.0000 C   0  0  0  0  0  0  0  0  0  0  0  0
    6.4439   -8.0685    0.0000 C   0  0  0  0  0  0  0  0  0  0  0  0
    5.7294   -8.4810    0.0000 C   0  0  0  0  0  0  0  0  0  0  0  0
    5.0149   -8.0685    0.0000 C   0  0  0  0  0  0  0  0  0  0  0  0
    5.0149   -7.2435    0.0000 C   0  0  0  0  0  0  0  0  0  0  0  0
    4.3004   -6.8310    0.0000 C   0  0  0  0  0  0  0  0  0  0  0  0
    4.3004   -6.0060    0.0000 C   0  0  0  0  0  0  0  0  0  0  0  0
    3.5860   -5.5935    0.0000 C   0  0  0  0  0  0  0  0  0  0  0  0
    3.5860   -4.7685    0.0000 C   0  0  0  0  0  0  0  0  0  0  0  0
    2.8715   -4.3560    0.0000 C   0  0  0  0  0  0  0  0  0  0  0  0
    2.1570   -4.7685    0.0000 C   0  0  0  0  0  0  0  0  0  0  0  0
    2.8715   -1.0560    0.0000 C   0  0  3  0  0  0  0  0  0  0  0  0
    2.2041   -0.5711    0.0000 O   0  0  0  0  0  0  0  0  0  0  0  0
    2.4590    0.2135    0.0000 C   0  0  0  0  0  0  0  0  0  0  0  0
    3.2840    0.2135    0.0000 C   0  0  2  0  0  0  0  0  0  0  0  0
    3.7689    0.8810    0.0000 O   0  0  0  0  0  0  0  0  0  0  0  0
    3.5389   -0.5711    0.0000 C   0  0  1  0  0  0  0  0  0  0  0  0
    4.3236   -0.8260    0.0000 O   0  0  0  0  0  0  0  0  0  0  0  0
    4.9367   -0.2740    0.0000 C   0  0  0  0  0  0  0  0  0  0  0  0
    5.7213   -0.5289    0.0000 O   0  0  0  0  0  0  0  0  0  0  0  0
    4.7651    0.5330    0.0000 C   0  0  0  0  0  0  0  0  0  0  0  0
    5.3782    1.0850    0.0000 C   0  0  0  0  0  0  0  0  0  0  0  0
    5.2067    1.8920    0.0000 C   0  0  0  0  0  0  0  0  0  0  0  0
    5.8198    2.4440    0.0000 C   0  0  0  0  0  0  0  0  0  0  0  0
    5.6483    3.2510    0.0000 C   0  0  0  0  0  0  0  0  0  0  0  0
    6.2614    3.8030    0.0000 C   0  0  0  0  0  0  0  0  0  0  0  0
    6.0898    4.6100    0.0000 C   0  0  0  0  0  0  0  0  0  0  0  0
    6.7029    5.1620    0.0000 C   0  0  0  0  0  0  0  0  0  0  0  0
    6.5314    5.9690    0.0000 C   0  0  0  0  0  0  0  0  0  0  0  0
    5.7468    6.2239    0.0000 C   0  0  0  0  0  0  0  0  0  0  0  0
    5.5753    7.0309    0.0000 C   0  0  0  0  0  0  0  0  0  0  0  0
    6.1884    7.5829    0.0000 C   0  0  0  0  0  0  0  0  0  0  0  0
    6.0168    8.3899    0.0000 C   0  0  0  0  0  0  0  0  0  0  0  0
    6.6299    8.9419    0.0000 C   0  0  0  0  0  0  0  0  0  0  0  0
    6.4584    9.7489    0.0000 C   0  0  0  0  0  0  0  0  0  0  0  0
    7.0715   10.3009    0.0000 C   0  0  0  0  0  0  0  0  0  0  0  0
    6.9000   11.1079    0.0000 C   0  0  0  0  0  0  0  0  0  0  0  0
  1  2  1  0  0  0  0
  2  3  1  0  0  0  0
  3  4  1  0  0  0  0
  4  5  1  0  0  0  0
  5  6  1  0  0  0  0
  6  7  1  0  0  0  0
  7  8  1  0  0  0  0
  8  9  1  0  0  0  0
  9 10  2  0  0  0  0
 10 11  1  0  0  0  0
 11 12  1  0  0  0  0
 12 13  1  0  0  0  0
 13 14  1  0  0  0  0
 14 15  1  0  0  0  0
 15 16  1  0  0  0  0
 16 17  1  0  0  0  0
 17 18  1  0  0  0  0
 18 19  2  0  0  0  0
 18 20  1  0  0  0  0
 20 21  1  0  0  0  0
 22 21  1  6  0  0  0
 22 23  1  0  0  0  0
 22 43  1  0  0  0  0
 23 24  1  0  0  0  0
 24 25  2  0  0  0  0
 24 26  1  0  0  0  0
 26 27  1  0  0  0  0
 27 28  1  0  0  0  0
 28 29  1  0  0  0  0
 29 30  1  0  0  0  0
 30 31  1  0  0  0  0
 31 32  1  0  0  0  0
 32 33  1  0  0  0  0
 33 34  2  0  0  0  0
 34 35  1  0  0  0  0
 35 36  1  0  0  0  0
 36 37  1  0  0  0  0
 37 38  1  0  0  0  0
 38 39  1  0  0  0  0
 39 40  1  0  0  0  0
 40 41  1  0  0  0  0
 41 42  1  0  0  0  0
 43 44  1  0  0  0  0
 43 48  1  0  0  0  0
 44 45  1  0  0  0  0
 45 46  1  0  0  0  0
 46 47  1  6  0  0  0
 46 48  1  0  0  0  0
 48 49  1  1  0  0  0
 49 50  1  0  0  0  0
 50 51  2  0  0  0  0
 50 52  1  0  0  0  0
 52 53  1  0  0  0  0
 53 54  1  0  0  0  0
 54 55  1  0  0  0  0
 55 56  1  0  0  0  0
 56 57  1  0  0  0  0
 57 58  1  0  0  0  0
 58 59  1  0  0  0  0
 59 60  2  0  0  0  0
 60 61  1  0  0  0  0
 61 62  1  0  0  0  0
 62 63  1  0  0  0  0
 63 64  1  0  0  0  0
 64 65  1  0  0  0  0
 65 66  1  0  0  0  0
 66 67  1  0  0  0  0
 67 68  1  0  0  0  0
M  END
>  <type>
common

$$$$
N-butyl-N-ethyl-2,6-dinitro-4-trifluoromethylaniline
 OpenBabel03171423152D

 23 23  0  0  0  0  0  0  0  0999 V2000
    1.7309   -2.1730    0.0000 C   0  0  0  0  0  0  0  0  0  0  0  0
    2.1434   -2.8875    0.0000 C   0  0  0  0  0  0  0  0  0  0  0  0
    2.9684   -2.8875    0.0000 C   0  0  0  0  0  0  0  0  0  0  0  0
    3.3809   -3.6020    0.0000 C   0  0  0  0  0  0  0  0  0  0  0  0
    4.2059   -3.6020    0.0000 N   0  0  0  0  0  0  0  0  0  0  0  0
    4.6184   -2.8875    0.0000 C   0  0  0  0  0  0  0  0  0  0  0  0
    4.2059   -2.1730    0.0000 C   0  0  0  0  0  0  0  0  0  0  0  0
    4.6184   -4.3164    0.0000 C   0  0  0  0  0  0  0  0  0  0  0  0
    5.4434   -4.3164    0.0000 C   0  0  0  0  0  0  0  0  0  0  0  0
    5.8559   -5.0309    0.0000 C   0  0  0  0  0  0  0  0  0  0  0  0
    5.4434   -5.7454    0.0000 C   0  0  0  0  0  0  0  0  0  0  0  0
    4.6184   -5.7454    0.0000 C   0  0  0  0  0  0  0  0  0  0  0  0
    4.2059   -5.0309    0.0000 C   0  0  0  0  0  0  0  0  0  0  0  0
    3.3809   -5.0309    0.0000 N   0  3  0  0  0  0  0  0  0  0  0  0
    2.9684   -4.3164    0.0000 O   0  5  0  0  0  0  0  0  0  0  0  0
    2.9684   -5.7454    0.0000 O   0  0  0  0  0  0  0  0  0  0  0  0
    5.8559   -6.4599    0.0000 C   0  0  0  0  0  0  0  0  0  0  0  0
    6.2684   -7.1743    0.0000 F   0  0  0  0  0  0  0  0  0  0  0  0
    5.1414   -6.8724    0.0000 F   0  0  0  0  0  0  0  0  0  0  0  0
    6.5704   -6.0474    0.0000 F   0  0  0  0  0  0  0  0  0  0  0  0
    5.8559   -3.6020    0.0000 N   0  3  0  0  0  0  0  0  0  0  0  0
    6.6809   -3.6020    0.0000 O   0  5  0  0  0  0  0  0  0  0  0  0
    5.4434   -2.8875    0.0000 O   0  0  0  0  0  0  0  0  0  0  0  0
  1  2  1  0  0  0  0
  2  3  1  0  0  0  0
  3  4  1  0  0  0  0
  4  5  1  0  0  0  0
  5  6  1  0  0  0  0
  5  8  1  0  0  0  0
  6  7  1  0  0  0  0
  8  9  2  0  0  0  0
  8 13  1  0  0  0  0
  9 10  1  0  0  0  0
  9 21  1  0  0  0  0
 10 11  2  0  0  0  0
 11 12  1  0  0  0  0
 11 17  1  0  0  0  0
 12 13  2  0  0  0  0
 13 14  1  0  0  0  0
 14 15  1  0  0  0  0
 14 16  2  0  0  0  0
 17 18  1  0  0  0  0
 17 19  1  0  0  0  0
 17 20  1  0  0  0  0
 21 22  1  0  0  0  0
 21 23  2  0  0  0  0
M  CHG  4  14   1  15  -1  21   1  22  -1
M  END
$$$$
pyriproxyfen
 OpenBabel03171423152D

 24 26  0  0  0  0  0  0  0  0999 V2000
    2.1434   -3.7125    0.0000 C   0  0  0  0  0  0  0  0  0  0  0  0
    2.1434   -2.8875    0.0000 C   0  0  3  0  0  0  0  0  0  0  0  0
    1.4289   -2.4750    0.0000 C   0  0  0  0  0  0  0  0  0  0  0  0
    0.7145   -2.8875    0.0000 O   0  0  0  0  0  0  0  0  0  0  0  0
    0.0000   -2.4750    0.0000 C   0  0  0  0  0  0  0  0  0  0  0  0
   -0.7145   -2.8875    0.0000 C   0  0  0  0  0  0  0  0  0  0  0  0
   -1.4289   -2.4750    0.0000 C   0  0  0  0  0  0  0  0  0  0  0  0
   -1.4289   -1.6500    0.0000 C   0  0  0  0  0  0  0  0  0  0  0  0
   -2.1434   -1.2375    0.0000 O   0  0  0  0  0  0  0  0  0  0  0  0
   -2.1434   -0.4125    0.0000 C   0  0  0  0  0  0  0  0  0  0  0  0
   -2.8579    0.0000    0.0000 C   0  0  0  0  0  0  0  0  0  0  0  0
   -2.8579    0.8250    0.0000 C   0  0  0  0  0  0  0  0  0  0  0  0
   -2.1434    1.2375    0.0000 C   0  0  0  0  0  0  0  0  0  0  0  0
   -1.4289    0.8250    0.0000 C   0  0  0  0  0  0  0  0  0  0  0  0
   -1.4289    0.0000    0.0000 C   0  0  0  0  0  0  0  0  0  0  0  0
   -0.7145   -1.2375    0.0000 C   0  0  0  0  0  0  0  0  0  0  0  0
    0.0000   -1.6500    0.0000 C   0  0  0  0  0  0  0  0  0  0  0  0
    2.8579   -2.4750    0.0000 O   0  0  0  0  0  0  0  0  0  0  0  0
    3.5724   -2.8875    0.0000 C   0  0  0  0  0  0  0  0  0  0  0  0
    4.2868   -2.4750    0.0000 C   0  0  0  0  0  0  0  0  0  0  0  0
    5.0013   -2.8875    0.0000 C   0  0  0  0  0  0  0  0  0  0  0  0
    5.0013   -3.7125    0.0000 C   0  0  0  0  0  0  0  0  0  0  0  0
    4.2868   -4.1250    0.0000 C   0  0  0  0  0  0  0  0  0  0  0  0
    3.5724   -3.7125    0.0000 N   0  0  0  0  0  0  0  0  0  0  0  0
  1  2  1  0  0  0  0
  2  3  1  0  0  0  0
  2 18  1  0  0  0  0
  3  4  1  0  0  0  0
  4  5  1  0  0  0  0
  5  6  2  0  0  0  0
  5 17  1  0  0  0  0
  6  7  1  0  0  0  0
  7  8  2  0  0  0  0
  8  9  1  0  0  0  0
  8 16  1  0  0  0  0
  9 10  1  0  0  0  0
 10 11  2  0  0  0  0
 10 15  1  0  0  0  0
 11 12  1  0  0  0  0
 12 13  2  0  0  0  0
 13 14  1  0  0  0  0
 14 15  2  0  0  0  0
 16 17  2  0  0  0  0
 18 19  1  0  0  0  0
 19 20  2  0  0  0  0
 19 24  1  0  0  0  0
 20 21  1  0  0  0  0
 21 22  2  0  0  0  0
 22 23  1  0  0  0  0
 23 24  2  0  0  0  0
M  END
$$$$
carboxylic acid
 OpenBabel03171423152D

  3  2  0  0  0  0  0  0  0  0999 V2000
    1.2375   -0.7145    0.0000 O   0  0  0  0  0  0  0  0  0  0  0  0
    1.9520   -1.1270    0.0000 C   0  0  0  0  0  0  0  0  0  0  0  0
    2.6664   -0.7145    0.0000 O   0  0  0  0  0  0  0  0  0  0  0  0
  1  2  1  0  0  0  0
  2  3  2  0  0  0  0
M  END
$$$$
benzyl methyl ammonium chloride
 OpenBabel03171423152D

 10  9  0  0  0  0  0  0  0  0999 V2000
    0.0000    0.0000    0.0000 Cl  0  5  0  0  0  0  0  0  0  0  0  0
    2.3571    2.1542    0.0000 C   0  0  0  0  0  0  0  0  0  0  0  0
    2.3571    1.3292    0.0000 N   0  3  0  0  0  0  0  0  0  0  0  0
    3.0716    0.9167    0.0000 C   0  0  0  0  0  0  0  0  0  0  0  0
    3.0716    0.0917    0.0000 C   0  0  0  0  0  0  0  0  0  0  0  0
    3.7861   -0.3208    0.0000 C   0  0  0  0  0  0  0  0  0  0  0  0
    3.7861   -1.1458    0.0000 C   0  0  0  0  0  0  0  0  0  0  0  0
    3.0716   -1.5583    0.0000 C   0  0  0  0  0  0  0  0  0  0  0  0
    2.3571   -1.1458    0.0000 C   0  0  0  0  0  0  0  0  0  0  0  0
    2.3571   -0.3208    0.0000 C   0  0  0  0  0  0  0  0  0  0  0  0
  2  3  1  0  0  0  0
  3  4  1  0  0  0  0
  4  5  1  0  0  0  0
  5  6  2  0  0  0  0
  5 10  1  0  0  0  0
  6  7  1  0  0  0  0
  7  8  2  0  0  0  0
  8  9  1  0  0  0  0
  9 10  2  0  0  0  0
M  CHG  2   1  -1   3   1
M  END
$$$$
cyromazine
 OpenBabel03171423152D

 12 13  0  0  0  0  0  0  0  0999 V2000
    0.4125    1.8882    0.0000 N   0  0  0  0  0  0  0  0  0  0  0  0
    1.1270    2.3007    0.0000 C   0  0  0  0  0  0  0  0  0  0  0  0
    1.1270    3.1257    0.0000 N   0  0  0  0  0  0  0  0  0  0  0  0
    1.8414    3.5382    0.0000 C   0  0  0  0  0  0  0  0  0  0  0  0
    1.8414    4.3632    0.0000 N   0  0  0  0  0  0  0  0  0  0  0  0
    2.5559    3.1257    0.0000 N   0  0  0  0  0  0  0  0  0  0  0  0
    2.5559    2.3007    0.0000 C   0  0  0  0  0  0  0  0  0  0  0  0
    3.2704    1.8882    0.0000 N   0  0  0  0  0  0  0  0  0  0  0  0
    3.2704    1.0632    0.0000 C   0  0  0  0  0  0  0  0  0  0  0  0
    3.6829    0.3487    0.0000 C   0  0  0  0  0  0  0  0  0  0  0  0
    2.8579    0.3487    0.0000 C   0  0  0  0  0  0  0  0  0  0  0  0
    1.8414    1.8882    0.0000 N   0  0  0  0  0  0  0  0  0  0  0  0
  1  2  1  0  0  0  0
  2  3  2  0  0  0  0
  2 12  1  0  0  0  0
  3  4  1  0  0  0  0
  4  5  1  0  0  0  0
  4  6  2  0  0  0  0
  6  7  1  0  0  0  0
  7  8  1  0  0  0  0
  7 12  2  0  0  0  0
  8  9  1  0  0  0  0
  9 10  1  0  0  0  0
  9 11  1  0  0  0  0
 10 11  1  0  0  0  0
M  END
$$$$
testo
 OpenBabel03171423152D

 14 16  0  0  0  0  0  0  0  0999 V2000
   -0.1435   -1.3654    0.0000 N   0  0  0  0  0  0  0  0  0  0  0  0
    0.6411   -1.1104    0.0000 C   0  0  0  0  0  0  0  0  0  0  0  0
    0.6411   -0.2854    0.0000 C   0  0  0  0  0  0  0  0  0  0  0  0
    1.3556    0.1271    0.0000 C   0  0  0  0  0  0  0  0  0  0  0  0
    2.0701   -0.2854    0.0000 C   0  0  0  0  0  0  0  0  0  0  0  0
    2.0701   -1.1104    0.0000 C   0  0  0  0  0  0  0  0  0  0  0  0
    1.3556   -1.5229    0.0000 C   0  0  0  0  0  0  0  0  0  0  0  0
   -0.1435   -0.0305    0.0000 N   0  0  0  0  0  0  0  0  0  0  0  0
   -0.6284   -0.6979    0.0000 C   0  0  0  0  0  0  0  0  0  0  0  0
   -1.4534   -0.6979    0.0000 C   0  0  0  0  0  0  0  0  0  0  0  0
   -1.9384   -1.3654    0.0000 C   0  0  0  0  0  0  0  0  0  0  0  0
   -2.7230   -1.1104    0.0000 S   0  0  0  0  0  0  0  0  0  0  0  0
   -2.7230   -0.2854    0.0000 C   0  0  0  0  0  0  0  0  0  0  0  0
   -1.9384   -0.0305    0.0000 N   0  0  0  0  0  0  0  0  0  0  0  0
  1  2  1  0  0  0  0
  1  9  1  0  0  0  0
  2  3  2  0  0  0  0
  2  7  1  0  0  0  0
  3  4  1  0  0  0  0
  3  8  1  0  0  0  0
  4  5  2  0  0  0  0
  5  6  1  0  0  0  0
  6  7  2  0  0  0  0
  8  9  2  0  0  0  0
  9 10  1  0  0  0  0
 10 11  2  0  0  0  0
 10 14  1  0  0  0  0
 11 12  1  0  0  0  0
 12 13  1  0  0  0  0
 13 14  2  0  0  0  0
M  END
$$$$
Alachlor
 OpenBabel03171423152D

 18 18  0  0  0  0  0  0  0  0999 V2000
    6.4302   -2.8875    0.0000 C   0  0  0  0  0  0  0  0  0  0  0  0
    5.7158   -2.4750    0.0000 C   0  0  0  0  0  0  0  0  0  0  0  0
    5.0013   -2.8875    0.0000 C   0  0  0  0  0  0  0  0  0  0  0  0
    5.0013   -3.7125    0.0000 C   0  0  0  0  0  0  0  0  0  0  0  0
    4.2868   -4.1250    0.0000 C   0  0  0  0  0  0  0  0  0  0  0  0
    3.5724   -3.7125    0.0000 C   0  0  0  0  0  0  0  0  0  0  0  0
    3.5724   -2.8875    0.0000 C   0  0  0  0  0  0  0  0  0  0  0  0
    2.8579   -2.4750    0.0000 C   0  0  0  0  0  0  0  0  0  0  0  0
    2.8579   -1.6500    0.0000 C   0  0  0  0  0  0  0  0  0  0  0  0
    4.2868   -2.4750    0.0000 C   0  0  0  0  0  0  0  0  0  0  0  0
    4.2868   -1.6500    0.0000 N   0  0  0  0  0  0  0  0  0  0  0  0
    3.5724   -1.2375    0.0000 C   0  0  0  0  0  0  0  0  0  0  0  0
    3.5724   -0.4125    0.0000 O   0  0  0  0  0  0  0  0  0  0  0  0
    2.8579    0.0000    0.0000 C   0  0  0  0  0  0  0  0  0  0  0  0
    5.0013   -1.2375    0.0000 C   0  0  0  0  0  0  0  0  0  0  0  0
    5.7158   -1.6500    0.0000 O   0  0  0  0  0  0  0  0  0  0  0  0
    5.0013   -0.4125    0.0000 C   0  0  0  0  0  0  0  0  0  0  0  0
    5.7158    0.0000    0.0000 Cl  0  0  0  0  0  0  0  0  0  0  0  0
  1  2  1  0  0  0  0
  2  3  1  0  0  0  0
  3  4  2  0  0  0  0
  3 10  1  0  0  0  0
  4  5  1  0  0  0  0
  5  6  2  0  0  0  0
  6  7  1  0  0  0  0
  7  8  1  0  0  0  0
  7 10  2  0  0  0  0
  8  9  1  0  0  0  0
 10 11  1  0  0  0  0
 11 12  1  0  0  0  0
 11 15  1  0  0  0  0
 12 13  1  0  0  0  0
 13 14  1  0  0  0  0
 15 16  2  0  0  0  0
 15 17  1  0  0  0  0
 17 18  1  0  0  0  0
M  END
$$$$
Paclobutrazol
 OpenBabel03171423152D

 20 21  0  0  0  0  0  0  0  0999 V2000
    0.6078    0.2277    0.0000 C   0  0  0  0  0  0  0  0  0  0  0  0
    1.3222    0.6402    0.0000 C   0  0  0  0  0  0  0  0  0  0  0  0
    1.7347   -0.0743    0.0000 C   0  0  0  0  0  0  0  0  0  0  0  0
    0.9097    1.3547    0.0000 C   0  0  0  0  0  0  0  0  0  0  0  0
    2.0367    1.0527    0.0000 C   0  0  3  0  0  0  0  0  0  0  0  0
    2.0367    1.8777    0.0000 O   0  0  0  0  0  0  0  0  0  0  0  0
    2.7512    0.6402    0.0000 C   0  0  3  0  0  0  0  0  0  0  0  0
    3.4656    1.0527    0.0000 C   0  0  0  0  0  0  0  0  0  0  0  0
    4.1801    0.6402    0.0000 C   0  0  0  0  0  0  0  0  0  0  0  0
    4.8946    1.0527    0.0000 C   0  0  0  0  0  0  0  0  0  0  0  0
    5.6091    0.6402    0.0000 C   0  0  0  0  0  0  0  0  0  0  0  0
    5.6091   -0.1848    0.0000 C   0  0  0  0  0  0  0  0  0  0  0  0
    6.3235   -0.5973    0.0000 Cl  0  0  0  0  0  0  0  0  0  0  0  0
    4.8946   -0.5973    0.0000 C   0  0  0  0  0  0  0  0  0  0  0  0
    4.1801   -0.1848    0.0000 C   0  0  0  0  0  0  0  0  0  0  0  0
    2.7512   -0.1848    0.0000 N   0  0  0  0  0  0  0  0  0  0  0  0
    3.4186   -0.6697    0.0000 C   0  0  0  0  0  0  0  0  0  0  0  0
    3.1637   -1.4544    0.0000 N   0  0  0  0  0  0  0  0  0  0  0  0
    2.3387   -1.4544    0.0000 C   0  0  0  0  0  0  0  0  0  0  0  0
    2.0837   -0.6697    0.0000 N   0  0  0  0  0  0  0  0  0  0  0  0
  1  2  1  0  0  0  0
  2  3  1  0  0  0  0
  2  4  1  0  0  0  0
  2  5  1  0  0  0  0
  5  6  1  0  0  0  0
  5  7  1  0  0  0  0
  7  8  1  0  0  0  0
  7 16  1  0  0  0  0
  8  9  1  0  0  0  0
  9 10  2  0  0  0  0
  9 15  1  0  0  0  0
 10 11  1  0  0  0  0
 11 12  2  0  0  0  0
 12 13  1  0  0  0  0
 12 14  1  0  0  0  0
 14 15  2  0  0  0  0
 16 17  1  0  0  0  0
 16 20  1  0  0  0  0
 17 18  2  0  0  0  0
 18 19  1  0  0  0  0
 19 20  2  0  0  0  0
M  END
>  <type>
common

$$$$
bensulfuron-methyl
 OpenBabel03171423152D

 28 29  0  0  0  0  0  0  0  0999 V2000
    3.5724   -2.0625    0.0000 C   0  0  0  0  0  0  0  0  0  0  0  0
    3.5724   -2.8875    0.0000 O   0  0  0  0  0  0  0  0  0  0  0  0
    2.8579   -3.3000    0.0000 C   0  0  0  0  0  0  0  0  0  0  0  0
    2.1434   -2.8875    0.0000 O   0  0  0  0  0  0  0  0  0  0  0  0
    2.8579   -4.1250    0.0000 C   0  0  0  0  0  0  0  0  0  0  0  0
    3.5724   -4.5375    0.0000 C   0  0  0  0  0  0  0  0  0  0  0  0
    3.5724   -5.3625    0.0000 C   0  0  0  0  0  0  0  0  0  0  0  0
    2.8579   -5.7750    0.0000 C   0  0  0  0  0  0  0  0  0  0  0  0
    2.1434   -5.3625    0.0000 C   0  0  0  0  0  0  0  0  0  0  0  0
    2.1434   -4.5375    0.0000 C   0  0  0  0  0  0  0  0  0  0  0  0
    1.4289   -4.1250    0.0000 C   0  0  0  0  0  0  0  0  0  0  0  0
    0.7145   -4.5375    0.0000 S   0  0  0  0  0  0  0  0  0  0  0  0
    0.3020   -3.8230    0.0000 O   0  0  0  0  0  0  0  0  0  0  0  0
    1.1270   -5.2520    0.0000 O   0  0  0  0  0  0  0  0  0  0  0  0
    0.0000   -4.9500    0.0000 N   0  0  0  0  0  0  0  0  0  0  0  0
   -0.7145   -4.5375    0.0000 C   0  0  0  0  0  0  0  0  0  0  0  0
   -0.7145   -3.7125    0.0000 O   0  0  0  0  0  0  0  0  0  0  0  0
   -1.4289   -4.9500    0.0000 N   0  0  0  0  0  0  0  0  0  0  0  0
   -2.1434   -4.5375    0.0000 C   0  0  0  0  0  0  0  0  0  0  0  0
   -2.8579   -4.9500    0.0000 N   0  0  0  0  0  0  0  0  0  0  0  0
   -3.5724   -4.5375    0.0000 C   0  0  0  0  0  0  0  0  0  0  0  0
   -4.2868   -4.9500    0.0000 O   0  0  0  0  0  0  0  0  0  0  0  0
   -4.2868   -5.7750    0.0000 C   0  0  0  0  0  0  0  0  0  0  0  0
   -3.5724   -3.7125    0.0000 C   0  0  0  0  0  0  0  0  0  0  0  0
   -2.8579   -3.3000    0.0000 C   0  0  0  0  0  0  0  0  0  0  0  0
   -2.8579   -2.4750    0.0000 O   0  0  0  0  0  0  0  0  0  0  0  0
   -2.1434   -2.0625    0.0000 C   0  0  0  0  0  0  0  0  0  0  0  0
   -2.1434   -3.7125    0.0000 N   0  0  0  0  0  0  0  0  0  0  0  0
  1  2  1  0  0  0  0
  2  3  1  0  0  0  0
  3  4  2  0  0  0  0
  3  5  1  0  0  0  0
  5  6  2  0  0  0  0
  5 10  1  0  0  0  0
  6  7  1  0  0  0  0
  7  8  2  0  0  0  0
  8  9  1  0  0  0  0
  9 10  2  0  0  0  0
 10 11  1  0  0  0  0
 11 12  1  0  0  0  0
 12 13  2  0  0  0  0
 12 14  2  0  0  0  0
 12 15  1  0  0  0  0
 15 16  1  0  0  0  0
 16 17  1  0  0  0  0
 16 18  2  3  0  0  0
 18 19  1  0  0  0  0
 19 20  2  0  0  0  0
 19 28  1  0  0  0  0
 20 21  1  0  0  0  0
 21 22  1  0  0  0  0
 21 24  2  0  0  0  0
 22 23  1  0  0  0  0
 24 25  1  0  0  0  0
 25 26  1  0  0  0  0
 25 28  2  0  0  0  0
 26 27  1  0  0  0  0
M  END
>  <type>
common

$$$$
Dicamba
 OpenBabel03171423152D

 13 13  0  0  0  0  0  0  0  0999 V2000
    0.0000    2.4750    0.0000 C   0  0  0  0  0  0  0  0  0  0  0  0
    0.7145    2.0625    0.0000 O   0  0  0  0  0  0  0  0  0  0  0  0
    0.7145    1.2375    0.0000 C   0  0  0  0  0  0  0  0  0  0  0  0
    1.4289    0.8250    0.0000 C   0  0  0  0  0  0  0  0  0  0  0  0
    2.1434    1.2375    0.0000 Cl  0  0  0  0  0  0  0  0  0  0  0  0
    1.4289   -0.0000    0.0000 C   0  0  0  0  0  0  0  0  0  0  0  0
    0.7145   -0.4125    0.0000 C   0  0  0  0  0  0  0  0  0  0  0  0
    0.0000    0.0000    0.0000 C   0  0  0  0  0  0  0  0  0  0  0  0
   -0.7145   -0.4125    0.0000 Cl  0  0  0  0  0  0  0  0  0  0  0  0
    0.0000    0.8250    0.0000 C   0  0  0  0  0  0  0  0  0  0  0  0
   -0.7145    1.2375    0.0000 C   0  0  0  0  0  0  0  0  0  0  0  0
   -0.7145    2.0625    0.0000 O   0  0  0  0  0  0  0  0  0  0  0  0
   -1.4289    0.8250    0.0000 O   0  0  0  0  0  0  0  0  0  0  0  0
  1  2  1  0  0  0  0
  2  3  1  0  0  0  0
  3  4  2  0  0  0  0
  3 10  1  0  0  0  0
  4  5  1  0  0  0  0
  4  6  1  0  0  0  0
  6  7  2  0  0  0  0
  7  8  1  0  0  0  0
  8  9  1  0  0  0  0
  8 10  2  0  0  0  0
 10 11  1  0  0  0  0
 11 12  1  0  0  0  0
 11 13  2  0  0  0  0
M  END
$$$$
2,4,6,8-Tetramethyl-1,3,5,7-tetroxocan
 OpenBabel03171423152D

 12 12  0  0  0  0  0  0  0  0999 V2000
    0.9959    2.3154    0.0000 C   0  0  0  0  0  0  0  0  0  0  0  0
    0.9959    1.4904    0.0000 C   0  0  3  0  0  0  0  0  0  0  0  0
    1.7581    1.1747    0.0000 O   0  0  0  0  0  0  0  0  0  0  0  0
    2.0738    0.4125    0.0000 C   0  0  3  0  0  0  0  0  0  0  0  0
    2.8988    0.4125    0.0000 C   0  0  0  0  0  0  0  0  0  0  0  0
    1.7581   -0.3497    0.0000 O   0  0  0  0  0  0  0  0  0  0  0  0
    0.9959   -0.6654    0.0000 C   0  0  3  0  0  0  0  0  0  0  0  0
    0.9959   -1.4904    0.0000 C   0  0  0  0  0  0  0  0  0  0  0  0
    0.2337   -0.3497    0.0000 O   0  0  0  0  0  0  0  0  0  0  0  0
   -0.0821    0.4125    0.0000 C   0  0  3  0  0  0  0  0  0  0  0  0
   -0.9071    0.4125    0.0000 C   0  0  0  0  0  0  0  0  0  0  0  0
    0.2337    1.1747    0.0000 O   0  0  0  0  0  0  0  0  0  0  0  0
  1  2  1  0  0  0  0
  2  3  1  0  0  0  0
  2 12  1  0  0  0  0
  3  4  1  0  0  0  0
  4  5  1  0  0  0  0
  4  6  1  0  0  0  0
  6  7  1  0  0  0  0
  7  8  1  0  0  0  0
  7  9  1  0  0  0  0
  9 10  1  0  0  0  0
 10 11  1  0  0  0  0
 10 12  1  0  0  0  0
M  END
$$$$
chloro, bromo
 OpenBabel03171423152D

  2  1  0  0  0  0  0  0  0  0999 V2000
    0.8250    0.0000    0.0000 Cl  0  0  0  0  0  0  0  0  0  0  0  0
    0.0000    0.0000    0.0000 Br  0  0  0  0  0  0  0  0  0  0  0  0
  1  2  1  0  0  0  0
M  END
$$$$
ZINC PHOSPHIDE
 OpenBabel03171423152D

  5  0  0  0  0  0  0  0  0  0999 V2000
    0.0000    0.0000    0.0000 P   0  0  0  0  0  0  0  0  0  0  0  0
    2.2393    0.0000    0.0000 P   0  0  0  0  0  0  0  0  0  0  0  0
    4.3607    0.0000    0.0000 Zn  0  0  0  0  0 15  0  0  0  0  0  0
    0.0000   -1.6500    0.0000 Zn  0  0  0  0  0 15  0  0  0  0  0  0
    2.1214   -1.6500    0.0000 Zn  0  0  0  0  0 15  0  0  0  0  0  0
M  END
>  <type>
common

$$$$
ZnSO4
 OpenBabel03171423152D

  6  4  0  0  0  0  0  0  0  0999 V2000
    0.0000    0.0000    0.0000 Zn  0  2  0  0  0 15  0  0  0  0  0  0
    2.8286   -0.8250    0.0000 O   0  5  0  0  0  0  0  0  0  0  0  0
    2.8286    0.0000    0.0000 S   0  0  0  0  0  0  0  0  0  0  0  0
    2.8286    0.8250    0.0000 O   0  5  0  0  0  0  0  0  0  0  0  0
    3.6536   -0.0000    0.0000 O   0  0  0  0  0  0  0  0  0  0  0  0
    2.0036    0.0000    0.0000 O   0  0  0  0  0  0  0  0  0  0  0  0
  2  3  1  0  0  0  0
  3  4  1  0  0  0  0
  3  5  2  0  0  0  0
  3  6  2  0  0  0  0
M  CHG  3   1   2   2  -1   4  -1
M  END
$$$$
trolnitrate phosphate
 OpenBabel03171423152D

 19 18  0  0  0  0  0  0  0  0999 V2000
    2.8579   -8.6329    0.0000 O   0  0  0  0  0  0  0  0  0  0  0  0
    2.8579   -7.8079    0.0000 N   0  0  0  0  0  0  0  0  0  0  0  0
    3.5724   -7.3954    0.0000 O   0  0  0  0  0  0  0  0  0  0  0  0
    2.1434   -7.3954    0.0000 O   0  0  0  0  0  0  0  0  0  0  0  0
    2.1434   -6.5704    0.0000 C   0  0  0  0  0  0  0  0  0  0  0  0
    1.4289   -6.1579    0.0000 C   0  0  0  0  0  0  0  0  0  0  0  0
    1.4289   -5.3329    0.0000 N   0  0  0  0  0  0  0  0  0  0  0  0
    0.7145   -4.9204    0.0000 C   0  0  0  0  0  0  0  0  0  0  0  0
    0.7145   -4.0954    0.0000 C   0  0  0  0  0  0  0  0  0  0  0  0
    0.0000   -3.6829    0.0000 O   0  0  0  0  0  0  0  0  0  0  0  0
    0.0000   -2.8579    0.0000 N   0  0  0  0  0  0  0  0  0  0  0  0
   -0.7145   -2.4454    0.0000 O   0  0  0  0  0  0  0  0  0  0  0  0
    0.7145   -2.4454    0.0000 O   0  0  0  0  0  0  0  0  0  0  0  0
    2.1434   -4.9204    0.0000 C   0  0  0  0  0  0  0  0  0  0  0  0
    2.1434   -4.0954    0.0000 C   0  0  0  0  0  0  0  0  0  0  0  0
    2.8579   -3.6829    0.0000 O   0  0  0  0  0  0  0  0  0  0  0  0
    2.8579   -2.8579    0.0000 N   0  0  0  0  0  0  0  0  0  0  0  0
    2.1434   -2.4454    0.0000 O   0  0  0  0  0  0  0  0  0  0  0  0
    3.5724   -2.4454    0.0000 O   0  0  0  0  0  0  0  0  0  0  0  0
  1  2  2  0  0  0  0
  2  3  2  0  0  0  0
  2  4  1  0  0  0  0
  4  5  1  0  0  0  0
  5  6  1  0  0  0  0
  6  7  1  0  0  0  0
  7  8  1  0  0  0  0
  7 14  1  0  0  0  0
  8  9  1  0  0  0  0
  9 10  1  0  0  0  0
 10 11  1  0  0  0  0
 11 12  2  0  0  0  0
 11 13  2  0  0  0  0
 14 15  1  0  0  0  0
 15 16  1  0  0  0  0
 16 17  1  0  0  0  0
 17 18  2  0  0  0  0
 17 19  2  0  0  0  0
M  END
$$$$
phenethyl propionate
 OpenBabel03171423152D

 13 13  0  0  0  0  0  0  0  0999 V2000
    1.4289   -4.1250    0.0000 C   0  0  0  0  0  0  0  0  0  0  0  0
    2.1434   -3.7125    0.0000 C   0  0  0  0  0  0  0  0  0  0  0  0
    2.8579   -4.1250    0.0000 C   0  0  0  0  0  0  0  0  0  0  0  0
    2.8579   -4.9500    0.0000 O   0  0  0  0  0  0  0  0  0  0  0  0
    3.5724   -3.7125    0.0000 O   0  0  0  0  0  0  0  0  0  0  0  0
    4.2868   -4.1250    0.0000 C   0  0  0  0  0  0  0  0  0  0  0  0
    5.0013   -3.7125    0.0000 C   0  0  0  0  0  0  0  0  0  0  0  0
    5.7158   -4.1250    0.0000 C   0  0  0  0  0  0  0  0  0  0  0  0
    6.4302   -3.7125    0.0000 C   0  0  0  0  0  0  0  0  0  0  0  0
    7.1447   -4.1250    0.0000 C   0  0  0  0  0  0  0  0  0  0  0  0
    7.1447   -4.9500    0.0000 C   0  0  0  0  0  0  0  0  0  0  0  0
    6.4302   -5.3625    0.0000 C   0  0  0  0  0  0  0  0  0  0  0  0
    5.7158   -4.9500    0.0000 C   0  0  0  0  0  0  0  0  0  0  0  0
  1  2  1  0  0  0  0
  2  3  1  0  0  0  0
  3  4  2  0  0  0  0
  3  5  1  0  0  0  0
  5  6  1  0  0  0  0
  6  7  1  0  0  0  0
  7  8  1  0  0  0  0
  8  9  2  0  0  0  0
  8 13  1  0  0  0  0
  9 10  1  0  0  0  0
 10 11  2  0  0  0  0
 11 12  1  0  0  0  0
 12 13  2  0  0  0  0
M  END
$$$$
Difethialone
 OpenBabel03171423152D

 35 40  0  0  0  0  0  0  0  0999 V2000
    2.1434   -0.4125    0.0000 O   0  0  0  0  0  0  0  0  0  0  0  0
    2.8579    0.0000    0.0000 C   0  0  0  0  0  0  0  0  0  0  0  0
    2.8579    0.8250    0.0000 C   0  0  0  0  0  0  0  0  0  0  0  0
    2.1434    1.2375    0.0000 C   0  0  3  0  0  0  0  0  0  0  0  0
    1.4289    0.8250    0.0000 C   0  0  0  0  0  0  0  0  0  0  0  0
    0.7145    1.2375    0.0000 C   0  0  3  0  0  0  0  0  0  0  0  0
    0.7145    2.0625    0.0000 C   0  0  0  0  0  0  0  0  0  0  0  0
    1.4289    2.4750    0.0000 C   0  0  0  0  0  0  0  0  0  0  0  0
    1.4289    3.3000    0.0000 C   0  0  0  0  0  0  0  0  0  0  0  0
    2.1434    3.7125    0.0000 C   0  0  0  0  0  0  0  0  0  0  0  0
    2.8579    3.3000    0.0000 C   0  0  0  0  0  0  0  0  0  0  0  0
    2.8579    2.4750    0.0000 C   0  0  0  0  0  0  0  0  0  0  0  0
    2.1434    2.0625    0.0000 C   0  0  0  0  0  0  0  0  0  0  0  0
   -0.0000    0.8250    0.0000 C   0  0  0  0  0  0  0  0  0  0  0  0
   -0.0000    0.0000    0.0000 C   0  0  0  0  0  0  0  0  0  0  0  0
   -0.7145   -0.4125    0.0000 C   0  0  0  0  0  0  0  0  0  0  0  0
   -1.4289    0.0000    0.0000 C   0  0  0  0  0  0  0  0  0  0  0  0
   -1.4289    0.8250    0.0000 C   0  0  0  0  0  0  0  0  0  0  0  0
   -0.7145    1.2375    0.0000 C   0  0  0  0  0  0  0  0  0  0  0  0
   -2.1434   -0.4125    0.0000 C   0  0  0  0  0  0  0  0  0  0  0  0
   -2.1434   -1.2375    0.0000 C   0  0  0  0  0  0  0  0  0  0  0  0
   -2.8579   -1.6500    0.0000 C   0  0  0  0  0  0  0  0  0  0  0  0
   -3.5724   -1.2375    0.0000 C   0  0  0  0  0  0  0  0  0  0  0  0
   -4.2868   -1.6500    0.0000 Br  0  0  0  0  0  0  0  0  0  0  0  0
   -3.5724   -0.4125    0.0000 C   0  0  0  0  0  0  0  0  0  0  0  0
   -2.8579    0.0000    0.0000 C   0  0  0  0  0  0  0  0  0  0  0  0
    3.5724    1.2375    0.0000 C   0  0  0  0  0  0  0  0  0  0  0  0
    3.5724    2.0625    0.0000 O   0  0  0  0  0  0  0  0  0  0  0  0
    4.2868    0.8250    0.0000 C   0  0  0  0  0  0  0  0  0  0  0  0
    5.0013    1.2375    0.0000 C   0  0  0  0  0  0  0  0  0  0  0  0
    5.7158    0.8250    0.0000 C   0  0  0  0  0  0  0  0  0  0  0  0
    5.7158    0.0000    0.0000 C   0  0  0  0  0  0  0  0  0  0  0  0
    5.0013   -0.4125    0.0000 C   0  0  0  0  0  0  0  0  0  0  0  0
    4.2868    0.0000    0.0000 C   0  0  0  0  0  0  0  0  0  0  0  0
    3.5724   -0.4125    0.0000 S   0  0  0  0  0  0  0  0  0  0  0  0
  1  2  1  0  0  0  0
  2  3  2  0  0  0  0
  2 35  1  0  0  0  0
  3  4  1  0  0  0  0
  3 27  1  0  0  0  0
  4  5  1  0  0  0  0
  4 13  1  0  0  0  0
  5  6  1  0  0  0  0
  6  7  1  0  0  0  0
  6 14  1  0  0  0  0
  7  8  1  0  0  0  0
  8  9  2  0  0  0  0
  8 13  1  0  0  0  0
  9 10  1  0  0  0  0
 10 11  2  0  0  0  0
 11 12  1  0  0  0  0
 12 13  2  0  0  0  0
 14 15  2  0  0  0  0
 14 19  1  0  0  0  0
 15 16  1  0  0  0  0
 16 17  2  0  0  0  0
 17 18  1  0  0  0  0
 17 20  1  0  0  0  0
 18 19  2  0  0  0  0
 20 21  2  0  0  0  0
 20 26  1  0  0  0  0
 21 22  1  0  0  0  0
 22 23  2  0  0  0  0
 23 24  1  0  0  0  0
 23 25  1  0  0  0  0
 25 26  2  0  0  0  0
 27 28  2  0  0  0  0
 27 29  1  0  0  0  0
 29 30  2  0  0  0  0
 29 34  1  0  0  0  0
 30 31  1  0  0  0  0
 31 32  2  0  0  0  0
 32 33  1  0  0  0  0
 33 34  2  0  0  0  0
 34 35  1  0  0  0  0
M  END
$$$$
2,6-Dichlorobenzonitrile
 OpenBabel03171423152D

 10 10  0  0  0  0  0  0  0  0999 V2000
    0.7145    2.0625    0.0000 Cl  0  0  0  0  0  0  0  0  0  0  0  0
    0.7145    1.2375    0.0000 C   0  0  0  0  0  0  0  0  0  0  0  0
    1.4289    0.8250    0.0000 C   0  0  0  0  0  0  0  0  0  0  0  0
    1.4289   -0.0000    0.0000 C   0  0  0  0  0  0  0  0  0  0  0  0
    0.7145   -0.4125    0.0000 C   0  0  0  0  0  0  0  0  0  0  0  0
    0.0000    0.0000    0.0000 C   0  0  0  0  0  0  0  0  0  0  0  0
   -0.7145   -0.4125    0.0000 Cl  0  0  0  0  0  0  0  0  0  0  0  0
    0.0000    0.8250    0.0000 C   0  0  0  0  0  0  0  0  0  0  0  0
   -0.7145    1.2375    0.0000 C   0  0  0  0  0  0  0  0  0  0  0  0
   -1.4289    1.6500    0.0000 N   0  0  0  0  0  0  0  0  0  0  0  0
  1  2  1  0  0  0  0
  2  3  2  0  0  0  0
  2  8  1  0  0  0  0
  3  4  1  0  0  0  0
  4  5  2  0  0  0  0
  5  6  1  0  0  0  0
  6  7  1  0  0  0  0
  6  8  2  0  0  0  0
  8  9  1  0  0  0  0
  9 10  3  0  0  0  0
M  END
$$$$
manganese sulfate
 OpenBabel03171423152D

  6  4  0  0  0  0  0  0  0  0999 V2000
    0.0000    0.0000    0.0000 Mn  0  0  0  0  0 15  0  0  0  0  0  0
    2.8286   -0.8250    0.0000 O   0  5  0  0  0  0  0  0  0  0  0  0
    2.8286    0.0000    0.0000 S   0  0  0  0  0  0  0  0  0  0  0  0
    2.8286    0.8250    0.0000 O   0  5  0  0  0  0  0  0  0  0  0  0
    3.6536   -0.0000    0.0000 O   0  0  0  0  0  0  0  0  0  0  0  0
    2.0036    0.0000    0.0000 O   0  0  0  0  0  0  0  0  0  0  0  0
  2  3  1  0  0  0  0
  3  4  1  0  0  0  0
  3  5  2  0  0  0  0
  3  6  2  0  0  0  0
M  CHG  2   2  -1   4  -1
M  END
$$$$
sulfonate
 OpenBabel03171423152D

  4  3  0  0  0  0  0  0  0  0999 V2000
    1.2375    0.7145    0.0000 O   0  5  0  0  0  0  0  0  0  0  0  0
    0.8250    0.0000    0.0000 S   0  0  0  0  0  0  0  0  0  0  0  0
    1.2375   -0.7145    0.0000 O   0  0  0  0  0  0  0  0  0  0  0  0
    0.0000    0.0000    0.0000 O   0  0  0  0  0  0  0  0  0  0  0  0
  1  2  1  0  0  0  0
  2  3  2  0  0  0  0
  2  4  2  0  0  0  0
M  CHG  1   1  -1
M  END
$$$$
1-[2-(2,4-dichlorphenyl)-2-(2-propenyloxy)ethyl]-1H-imidazole
 OpenBabel03171423152D

 19 20  0  0  0  0  0  0  0  0999 V2000
    0.7145   -1.2375    0.0000 Cl  0  0  0  0  0  0  0  0  0  0  0  0
    0.7145   -0.4125    0.0000 C   0  0  0  0  0  0  0  0  0  0  0  0
    0.0000    0.0000    0.0000 C   0  0  0  0  0  0  0  0  0  0  0  0
    0.0000    0.8250    0.0000 C   0  0  0  0  0  0  0  0  0  0  0  0
   -0.7145    1.2375    0.0000 Cl  0  0  0  0  0  0  0  0  0  0  0  0
    0.7145    1.2375    0.0000 C   0  0  0  0  0  0  0  0  0  0  0  0
    1.4289    0.8250    0.0000 C   0  0  0  0  0  0  0  0  0  0  0  0
    1.4289    0.0000    0.0000 C   0  0  0  0  0  0  0  0  0  0  0  0
    0.7145    2.0625    0.0000 C   0  0  3  0  0  0  0  0  0  0  0  0
   -0.0000    2.4750    0.0000 C   0  0  0  0  0  0  0  0  0  0  0  0
   -0.0000    3.3000    0.0000 N   0  0  0  0  0  0  0  0  0  0  0  0
   -0.6674    3.7849    0.0000 C   0  0  0  0  0  0  0  0  0  0  0  0
   -0.4125    4.5695    0.0000 C   0  0  0  0  0  0  0  0  0  0  0  0
    0.4125    4.5695    0.0000 N   0  0  0  0  0  0  0  0  0  0  0  0
    0.6674    3.7849    0.0000 C   0  0  0  0  0  0  0  0  0  0  0  0
    1.4289    2.4750    0.0000 O   0  0  0  0  0  0  0  0  0  0  0  0
    2.1434    2.0625    0.0000 C   0  0  0  0  0  0  0  0  0  0  0  0
    2.8579    2.4750    0.0000 C   0  0  0  0  0  0  0  0  0  0  0  0
    3.5724    2.0625    0.0000 C   0  0  0  0  0  0  0  0  0  0  0  0
  1  2  1  0  0  0  0
  2  3  2  0  0  0  0
  2  8  1  0  0  0  0
  3  4  1  0  0  0  0
  4  5  1  0  0  0  0
  4  6  2  0  0  0  0
  6  7  1  0  0  0  0
  6  9  1  0  0  0  0
  7  8  2  0  0  0  0
  9 10  1  0  0  0  0
  9 16  1  0  0  0  0
 10 11  1  0  0  0  0
 11 12  1  0  0  0  0
 11 15  1  0  0  0  0
 12 13  2  0  0  0  0
 13 14  1  0  0  0  0
 14 15  2  0  0  0  0
 16 17  1  0  0  0  0
 17 18  1  0  0  0  0
 18 19  2  0  0  0  0
M  END
$$$$
Indoxacarb
 OpenBabel03171423152D

 36 39  0  0  1  0  0  0  0  0999 V2000
   -0.2332   -4.2849    0.0000 C   0  0  0  0  0  0  0  0  0  0  0  0
    0.3188   -3.6718    0.0000 O   0  0  0  0  0  0  0  0  0  0  0  0
    0.0639   -2.8872    0.0000 C   0  0  0  0  0  0  0  0  0  0  0  0
   -0.7431   -2.7157    0.0000 O   0  0  0  0  0  0  0  0  0  0  0  0
    0.6159   -2.2741    0.0000 N   0  0  0  0  0  0  0  0  0  0  0  0
    1.4229   -2.4457    0.0000 C   0  0  0  0  0  0  0  0  0  0  0  0
    1.6778   -3.2303    0.0000 O   0  0  0  0  0  0  0  0  0  0  0  0
    1.9749   -1.8326    0.0000 N   0  0  0  0  0  0  0  0  0  0  0  0
    1.7200   -1.0479    0.0000 C   0  0  0  0  0  0  0  0  0  0  0  0
    2.2720   -0.4349    0.0000 O   0  0  0  0  0  0  0  0  0  0  0  0
    3.0790   -0.6064    0.0000 C   0  0  1  0  0  0  0  0  0  0  0  0
    3.7464   -0.1215    0.0000 C   0  0  0  0  0  0  0  0  0  0  0  0
    4.4139   -0.6064    0.0000 C   0  0  0  0  0  0  0  0  0  0  0  0
    5.2208   -0.4349    0.0000 C   0  0  0  0  0  0  0  0  0  0  0  0
    5.7729   -1.0479    0.0000 C   0  0  0  0  0  0  0  0  0  0  0  0
    6.5798   -0.8764    0.0000 Cl  0  0  0  0  0  0  0  0  0  0  0  0
    5.5179   -1.8326    0.0000 C   0  0  0  0  0  0  0  0  0  0  0  0
    4.7110   -2.0041    0.0000 C   0  0  0  0  0  0  0  0  0  0  0  0
    4.1589   -1.3910    0.0000 C   0  0  0  0  0  0  0  0  0  0  0  0
    3.3339   -1.3910    0.0000 C   0  0  0  0  0  0  0  0  0  0  0  0
    2.7819   -2.0041    0.0000 N   0  0  0  0  0  0  0  0  0  0  0  0
    2.9075    0.2006    0.0000 C   0  0  0  0  0  0  0  0  0  0  0  0
    3.5206    0.7526    0.0000 O   0  0  0  0  0  0  0  0  0  0  0  0
    2.1228    0.4555    0.0000 O   0  0  0  0  0  0  0  0  0  0  0  0
    1.9513    1.2625    0.0000 C   0  0  0  0  0  0  0  0  0  0  0  0
    0.3610   -1.4895    0.0000 C   0  0  0  0  0  0  0  0  0  0  0  0
   -0.4460   -1.3180    0.0000 C   0  0  0  0  0  0  0  0  0  0  0  0
   -0.7009   -0.5334    0.0000 C   0  0  0  0  0  0  0  0  0  0  0  0
   -0.1489    0.0797    0.0000 C   0  0  0  0  0  0  0  0  0  0  0  0
   -0.4038    0.8644    0.0000 O   0  0  0  0  0  0  0  0  0  0  0  0
   -1.2108    1.0359    0.0000 C   0  0  0  0  0  0  0  0  0  0  0  0
   -2.0178    1.2074    0.0000 F   0  0  0  0  0  0  0  0  0  0  0  0
   -1.0393    1.8429    0.0000 F   0  0  0  0  0  0  0  0  0  0  0  0
   -1.3823    0.2289    0.0000 F   0  0  0  0  0  0  0  0  0  0  0  0
    0.6581   -0.0918    0.0000 C   0  0  0  0  0  0  0  0  0  0  0  0
    0.9130   -0.8764    0.0000 C   0  0  0  0  0  0  0  0  0  0  0  0
  1  2  1  0  0  0  0
  2  3  1  0  0  0  0
  3  4  2  0  0  0  0
  3  5  1  0  0  0  0
  5  6  1  0  0  0  0
  5 26  1  0  0  0  0
  6  7  2  0  0  0  0
  6  8  1  0  0  0  0
  8  9  1  0  0  0  0
  8 21  1  0  0  0  0
  9 10  1  0  0  0  0
 10 11  1  0  0  0  0
 11 12  1  0  0  0  0
 11 20  1  0  0  0  0
 11 22  1  6  0  0  0
 12 13  1  0  0  0  0
 13 14  2  0  0  0  0
 13 19  1  0  0  0  0
 14 15  1  0  0  0  0
 15 16  1  0  0  0  0
 15 17  2  0  0  0  0
 17 18  1  0  0  0  0
 18 19  2  0  0  0  0
 19 20  1  0  0  0  0
 20 21  2  0  0  0  0
 22 23  2  0  0  0  0
 22 24  1  0  0  0  0
 24 25  1  0  0  0  0
 26 27  2  0  0  0  0
 26 36  1  0  0  0  0
 27 28  1  0  0  0  0
 28 29  2  0  0  0  0
 29 30  1  0  0  0  0
 29 35  1  0  0  0  0
 30 31  1  0  0  0  0
 31 32  1  0  0  0  0
 31 33  1  0  0  0  0
 31 34  1  0  0  0  0
 35 36  2  0  0  0  0
M  END
>  <type>
common

$$$$
Isobutylamin
 OpenBabel03171423152D

  5  4  0  0  0  0  0  0  0  0999 V2000
    2.0625   -0.7145    0.0000 C   0  0  0  0  0  0  0  0  0  0  0  0
    1.2375   -0.7145    0.0000 C   0  0  0  0  0  0  0  0  0  0  0  0
    0.8250   -1.4289    0.0000 C   0  0  0  0  0  0  0  0  0  0  0  0
    0.8250    0.0000    0.0000 C   0  0  0  0  0  0  0  0  0  0  0  0
    0.0000    0.0000    0.0000 N   0  0  0  0  0  0  0  0  0  0  0  0
  1  2  1  0  0  0  0
  2  3  1  0  0  0  0
  2  4  1  0  0  0  0
  4  5  1  0  0  0  0
M  END
$$$$
tebuthiuron
 OpenBabel03171423152D

 15 15  0  0  0  0  0  0  0  0999 V2000
    1.9967    3.5893    0.0000 C   0  0  0  0  0  0  0  0  0  0  0  0
    1.2822    3.1768    0.0000 N   0  0  0  0  0  0  0  0  0  0  0  0
    1.2822    2.3518    0.0000 C   0  0  0  0  0  0  0  0  0  0  0  0
    1.9967    1.9393    0.0000 O   0  0  0  0  0  0  0  0  0  0  0  0
    0.5678    1.9393    0.0000 N   0  0  0  0  0  0  0  0  0  0  0  0
   -0.1467    2.3518    0.0000 C   0  0  0  0  0  0  0  0  0  0  0  0
    0.5678    1.1143    0.0000 C   0  0  0  0  0  0  0  0  0  0  0  0
    1.2352    0.6294    0.0000 N   0  0  0  0  0  0  0  0  0  0  0  0
    0.9803   -0.1553    0.0000 N   0  0  0  0  0  0  0  0  0  0  0  0
    0.1553   -0.1553    0.0000 C   0  0  0  0  0  0  0  0  0  0  0  0
   -0.0997    0.6294    0.0000 S   0  0  0  0  0  0  0  0  0  0  0  0
   -0.3297   -0.8227    0.0000 C   0  0  0  0  0  0  0  0  0  0  0  0
   -0.8146   -1.4901    0.0000 C   0  0  0  0  0  0  0  0  0  0  0  0
   -0.9971   -0.3378    0.0000 C   0  0  0  0  0  0  0  0  0  0  0  0
    0.3378   -1.3076    0.0000 C   0  0  0  0  0  0  0  0  0  0  0  0
  1  2  1  0  0  0  0
  2  3  1  0  0  0  0
  3  4  2  0  0  0  0
  3  5  1  0  0  0  0
  5  6  1  0  0  0  0
  5  7  1  0  0  0  0
  7  8  2  0  0  0  0
  7 11  1  0  0  0  0
  8  9  1  0  0  0  0
  9 10  2  0  0  0  0
 10 11  1  0  0  0  0
 10 12  1  0  0  0  0
 12 13  1  0  0  0  0
 12 14  1  0  0  0  0
 12 15  1  0  0  0  0
M  END
$$$$
Diquat dibromide
 OpenBabel03171423152D

 16 16  0  0  0  0  0  0  0  0999 V2000
    0.0000    0.0000    0.0000 Br  0  5  0  0  0  0  0  0  0  0  0  0
    1.0018    0.0000    0.0000 Br  0  5  0  0  0  0  0  0  0  0  0  0
   -0.4125   -3.7934    0.0000 C   0  0  0  0  0  0  0  0  0  0  0  0
    0.4125   -3.7934    0.0000 C   0  0  0  0  0  0  0  0  0  0  0  0
    0.8250   -3.0789    0.0000 N   0  3  0  0  0  0  0  0  0  0  0  0
    0.4125   -2.3645    0.0000 C   0  0  0  0  0  0  0  0  0  0  0  0
    0.8250   -1.6500    0.0000 C   0  0  0  0  0  0  0  0  0  0  0  0
    1.6500   -1.6500    0.0000 C   0  0  0  0  0  0  0  0  0  0  0  0
    2.0625   -2.3645    0.0000 C   0  0  0  0  0  0  0  0  0  0  0  0
    1.6500   -3.0789    0.0000 C   0  0  0  0  0  0  0  0  0  0  0  0
   -0.4125   -2.3645    0.0000 C   0  0  0  0  0  0  0  0  0  0  0  0
   -0.8250   -3.0789    0.0000 N   0  3  0  0  0  0  0  0  0  0  0  0
   -1.6500   -3.0789    0.0000 C   0  0  0  0  0  0  0  0  0  0  0  0
   -2.0625   -2.3645    0.0000 C   0  0  0  0  0  0  0  0  0  0  0  0
   -1.6500   -1.6500    0.0000 C   0  0  0  0  0  0  0  0  0  0  0  0
   -0.8250   -1.6500    0.0000 C   0  0  0  0  0  0  0  0  0  0  0  0
  3  4  1  0  0  0  0
  3 12  1  0  0  0  0
  4  5  1  0  0  0  0
  5  6  2  0  0  0  0
  5 10  1  0  0  0  0
  6  7  1  0  0  0  0
  6 11  1  0  0  0  0
  7  8  2  0  0  0  0
  8  9  1  0  0  0  0
  9 10  2  0  0  0  0
 11 12  2  0  0  0  0
 11 16  1  0  0  0  0
 12 13  1  0  0  0  0
 13 14  2  0  0  0  0
 14 15  1  0  0  0  0
 15 16  2  0  0  0  0
M  CHG  4   1  -1   2  -1   5   1  12   1
M  END
$$$$
disodium salt
 OpenBabel03171423152D

  1  0  0  0  0  0  0  0  0  0999 V2000
    0.0000    0.0000    0.0000 Na  0  3  0  0  0 15  0  0  0  0  0  0
M  CHG  1   1   1
M  END
$$$$
fenarimol
 OpenBabel03171423152D

 22 24  0  0  0  0  0  0  0  0999 V2000
   -0.1105   -1.2375    0.0000 O   0  0  0  0  0  0  0  0  0  0  0  0
    0.7145   -1.2375    0.0000 C   0  0  3  0  0  0  0  0  0  0  0  0
    0.7145   -2.0625    0.0000 C   0  0  0  0  0  0  0  0  0  0  0  0
    1.4289   -2.4750    0.0000 C   0  0  0  0  0  0  0  0  0  0  0  0
    1.4289   -3.3000    0.0000 C   0  0  0  0  0  0  0  0  0  0  0  0
    0.7145   -3.7125    0.0000 C   0  0  0  0  0  0  0  0  0  0  0  0
    0.7145   -4.5375    0.0000 Cl  0  0  0  0  0  0  0  0  0  0  0  0
    0.0000   -3.3000    0.0000 C   0  0  0  0  0  0  0  0  0  0  0  0
    0.0000   -2.4750    0.0000 C   0  0  0  0  0  0  0  0  0  0  0  0
    1.5395   -1.2375    0.0000 C   0  0  0  0  0  0  0  0  0  0  0  0
    1.9520   -0.5230    0.0000 C   0  0  0  0  0  0  0  0  0  0  0  0
    2.7770   -0.5230    0.0000 N   0  0  0  0  0  0  0  0  0  0  0  0
    3.1895   -1.2375    0.0000 C   0  0  0  0  0  0  0  0  0  0  0  0
    2.7770   -1.9520    0.0000 N   0  0  0  0  0  0  0  0  0  0  0  0
    1.9520   -1.9520    0.0000 C   0  0  0  0  0  0  0  0  0  0  0  0
    0.7145   -0.4125    0.0000 C   0  0  0  0  0  0  0  0  0  0  0  0
    0.0000    0.0000    0.0000 C   0  0  0  0  0  0  0  0  0  0  0  0
   -0.7145   -0.4125    0.0000 Cl  0  0  0  0  0  0  0  0  0  0  0  0
    0.0000    0.8250    0.0000 C   0  0  0  0  0  0  0  0  0  0  0  0
    0.7145    1.2375    0.0000 C   0  0  0  0  0  0  0  0  0  0  0  0
    1.4289    0.8250    0.0000 C   0  0  0  0  0  0  0  0  0  0  0  0
    1.4289   -0.0000    0.0000 C   0  0  0  0  0  0  0  0  0  0  0  0
  1  2  1  0  0  0  0
  2  3  1  0  0  0  0
  2 10  1  0  0  0  0
  2 16  1  0  0  0  0
  3  4  2  0  0  0  0
  3  9  1  0  0  0  0
  4  5  1  0  0  0  0
  5  6  2  0  0  0  0
  6  7  1  0  0  0  0
  6  8  1  0  0  0  0
  8  9  2  0  0  0  0
 10 11  2  0  0  0  0
 10 15  1  0  0  0  0
 11 12  1  0  0  0  0
 12 13  2  0  0  0  0
 13 14  1  0  0  0  0
 14 15  2  0  0  0  0
 16 17  2  0  0  0  0
 16 22  1  0  0  0  0
 17 18  1  0  0  0  0
 17 19  1  0  0  0  0
 19 20  2  0  0  0  0
 20 21  1  0  0  0  0
 21 22  2  0  0  0  0
M  END
$$$$
DISODIUM CYANODITHIOIMIDO
 OpenBabel03171423152D

  7  4  0  0  0  0  0  0  0  0999 V2000
    0.3300    0.0000    0.0000 N   0  0  0  0  0  0  0  0  0  0  0  0
    0.7425   -0.7145    0.0000 S   0  0  0  0  0  0  0  0  0  0  0  0
    0.7425    0.7145    0.0000 S   0  0  0  0  0  0  0  0  0  0  0  0
   -0.4950    0.0000    0.0000 C   0  0  0  0  0  0  0  0  0  0  0  0
   -1.3200    0.0000    0.0000 N   0  0  0  0  0  0  0  0  0  0  0  0
    2.9818    0.0000    0.0000 Na  0  3  0  0  0 15  0  0  0  0  0  0
    0.0000   -2.3645    0.0000 Na  0  3  0  0  0 15  0  0  0  0  0  0
  1  2  1  0  0  0  0
  1  3  1  0  0  0  0
  1  4  1  0  0  0  0
  4  5  3  0  0  0  0
M  CHG  2   6   1   7   1
M  END
>  <type>
systematic

$$$$
sulfuric acid
 OpenBabel03171423152D

  5  4  0  0  0  0  0  0  0  0999 V2000
    0.8250   -0.8250    0.0000 O   0  0  0  0  0  0  0  0  0  0  0  0
    0.8250    0.0000    0.0000 S   0  0  0  0  0  0  0  0  0  0  0  0
    0.8250    0.8250    0.0000 O   0  0  0  0  0  0  0  0  0  0  0  0
    1.6500   -0.0000    0.0000 O   0  0  0  0  0  0  0  0  0  0  0  0
    0.0000    0.0000    0.0000 O   0  0  0  0  0  0  0  0  0  0  0  0
  1  2  1  0  0  0  0
  2  3  1  0  0  0  0
  2  4  2  0  0  0  0
  2  5  2  0  0  0  0
M  END
$$$$
dodecyl dodecanoate
 OpenBabel03171423152D

 26 25  0  0  0  0  0  0  0  0999 V2000
   12.8980    8.2717    0.0000 C   0  0  0  0  0  0  0  0  0  0  0  0
   13.6125    7.8592    0.0000 C   0  0  0  0  0  0  0  0  0  0  0  0
   14.3270    8.2717    0.0000 C   0  0  0  0  0  0  0  0  0  0  0  0
   15.0414    7.8592    0.0000 C   0  0  0  0  0  0  0  0  0  0  0  0
   15.7559    8.2717    0.0000 C   0  0  0  0  0  0  0  0  0  0  0  0
   16.4704    7.8592    0.0000 C   0  0  0  0  0  0  0  0  0  0  0  0
   17.1849    8.2717    0.0000 C   0  0  0  0  0  0  0  0  0  0  0  0
   17.8993    7.8592    0.0000 C   0  0  0  0  0  0  0  0  0  0  0  0
   18.6138    8.2717    0.0000 C   0  0  0  0  0  0  0  0  0  0  0  0
   19.3283    7.8592    0.0000 C   0  0  0  0  0  0  0  0  0  0  0  0
   20.0427    8.2717    0.0000 C   0  0  0  0  0  0  0  0  0  0  0  0
   20.7572    7.8592    0.0000 C   0  0  0  0  0  0  0  0  0  0  0  0
   21.4717    8.2717    0.0000 O   0  0  0  0  0  0  0  0  0  0  0  0
   22.1862    7.8592    0.0000 C   0  0  0  0  0  0  0  0  0  0  0  0
   22.1862    7.0342    0.0000 O   0  0  0  0  0  0  0  0  0  0  0  0
   22.9006    8.2717    0.0000 C   0  0  0  0  0  0  0  0  0  0  0  0
   23.6151    7.8592    0.0000 C   0  0  0  0  0  0  0  0  0  0  0  0
   24.3296    8.2717    0.0000 C   0  0  0  0  0  0  0  0  0  0  0  0
   25.0440    7.8592    0.0000 C   0  0  0  0  0  0  0  0  0  0  0  0
   25.7585    8.2717    0.0000 C   0  0  0  0  0  0  0  0  0  0  0  0
   26.4730    7.8592    0.0000 C   0  0  0  0  0  0  0  0  0  0  0  0
   27.1874    8.2717    0.0000 C   0  0  0  0  0  0  0  0  0  0  0  0
   27.9019    7.8592    0.0000 C   0  0  0  0  0  0  0  0  0  0  0  0
   28.6164    8.2717    0.0000 C   0  0  0  0  0  0  0  0  0  0  0  0
   29.3309    7.8592    0.0000 C   0  0  0  0  0  0  0  0  0  0  0  0
   30.0453    8.2717    0.0000 C   0  0  0  0  0  0  0  0  0  0  0  0
  1  2  1  0  0  0  0
  2  3  1  0  0  0  0
  3  4  1  0  0  0  0
  4  5  1  0  0  0  0
  5  6  1  0  0  0  0
  6  7  1  0  0  0  0
  7  8  1  0  0  0  0
  8  9  1  0  0  0  0
  9 10  1  0  0  0  0
 10 11  1  0  0  0  0
 11 12  1  0  0  0  0
 12 13  1  0  0  0  0
 13 14  1  0  0  0  0
 14 15  2  0  0  0  0
 14 16  1  0  0  0  0
 16 17  1  0  0  0  0
 17 18  1  0  0  0  0
 18 19  1  0  0  0  0
 19 20  1  0  0  0  0
 20 21  1  0  0  0  0
 21 22  1  0  0  0  0
 22 23  1  0  0  0  0
 23 24  1  0  0  0  0
 24 25  1  0  0  0  0
 25 26  1  0  0  0  0
M  END
$$$$
2-Methyl-4-chlorophenoxyacetic acid
 OpenBabel03171423152D

 13 13  0  0  0  0  0  0  0  0999 V2000
    0.7145    2.0625    0.0000 C   0  0  0  0  0  0  0  0  0  0  0  0
    0.7145    1.2375    0.0000 C   0  0  0  0  0  0  0  0  0  0  0  0
    1.4289    0.8250    0.0000 C   0  0  0  0  0  0  0  0  0  0  0  0
    2.1434    1.2375    0.0000 O   0  0  0  0  0  0  0  0  0  0  0  0
    2.1434    2.0625    0.0000 C   0  0  0  0  0  0  0  0  0  0  0  0
    2.8579    2.4750    0.0000 C   0  0  0  0  0  0  0  0  0  0  0  0
    2.8579    3.3000    0.0000 O   0  0  0  0  0  0  0  0  0  0  0  0
    3.5724    2.0625    0.0000 O   0  0  0  0  0  0  0  0  0  0  0  0
    1.4289   -0.0000    0.0000 C   0  0  0  0  0  0  0  0  0  0  0  0
    0.7145   -0.4125    0.0000 C   0  0  0  0  0  0  0  0  0  0  0  0
    0.0000    0.0000    0.0000 C   0  0  0  0  0  0  0  0  0  0  0  0
   -0.7145   -0.4125    0.0000 Cl  0  0  0  0  0  0  0  0  0  0  0  0
    0.0000    0.8250    0.0000 C   0  0  0  0  0  0  0  0  0  0  0  0
  1  2  1  0  0  0  0
  2  3  2  0  0  0  0
  2 13  1  0  0  0  0
  3  4  1  0  0  0  0
  3  9  1  0  0  0  0
  4  5  1  0  0  0  0
  5  6  1  0  0  0  0
  6  7  1  0  0  0  0
  6  8  2  0  0  0  0
  9 10  2  0  0  0  0
 10 11  1  0  0  0  0
 11 12  1  0  0  0  0
 11 13  2  0  0  0  0
M  END
$$$$
CLK001B04 __  __  __
 OpenBabel03171423152D

 24 26  0  0  0  0  0  0  0  0999 V2000
   -1.5258    0.0076    0.0000 C   0  0  0  0  0  0  0  0  0  0  0  0
   -0.7155    0.1514    0.0000 C   0  0  3  0  0  0  0  0  0  0  0  0
   -1.6393   -0.8026    0.0000 C   0  0  0  0  0  0  0  0  0  0  0  0
   -2.1731    0.5301    0.0000 C   0  0  0  0  0  0  0  0  0  0  0  0
   -0.3331   -0.5793    0.0000 C   0  0  0  0  0  0  0  0  0  0  0  0
    0.2120    0.7761    0.0000 C   0  0  0  0  0  0  0  0  0  0  0  0
   -0.9768    1.0903    0.0000 O   0  0  0  0  0  0  0  0  0  0  0  0
   -0.9086   -1.1661    0.0000 N   0  0  0  0  0  0  0  0  0  0  0  0
   -2.4041   -1.1131    0.0000 C   0  0  0  0  0  0  0  0  0  0  0  0
   -2.9416    0.2120    0.0000 C   0  0  0  0  0  0  0  0  0  0  0  0
    0.4846   -0.6928    0.0000 O   0  0  0  0  0  0  0  0  0  0  0  0
    0.9994    0.3634    0.0000 C   0  0  0  0  0  0  0  0  0  0  0  0
   -0.7610   -1.9762    0.0000 C   0  0  0  0  0  0  0  0  0  0  0  0
   -3.0553   -0.6057    0.0000 C   0  0  0  0  0  0  0  0  0  0  0  0
    1.6999    0.8101    0.0000 C   0  0  0  0  0  0  0  0  0  0  0  0
    1.0336   -0.3218    0.0000 O   0  0  0  0  0  0  0  0  0  0  0  0
   -1.3933   -2.5025    0.0000 C   0  0  0  0  0  0  0  0  0  0  0  0
    2.4267    0.4316    0.0000 C   0  0  0  0  0  0  0  0  0  0  0  0
    1.6582    1.6317    0.0000 C   0  0  0  0  0  0  0  0  0  0  0  0
   -2.0254   -3.0325    0.0000 C   0  0  0  0  0  0  0  0  0  0  0  0
    3.1196    0.8708    0.0000 C   0  0  0  0  0  0  0  0  0  0  0  0
    2.3511    2.0785    0.0000 C   0  0  0  0  0  0  0  0  0  0  0  0
    3.0855    1.6961    0.0000 C   0  0  0  0  0  0  0  0  0  0  0  0
    3.7784    2.1391    0.0000 C   0  0  0  0  0  0  0  0  0  0  0  0
  1  2  1  0  0  0  0
  1  3  2  0  0  0  0
  1  4  1  0  0  0  0
  2  5  1  0  0  0  0
  2  6  1  0  0  0  0
  2  7  1  0  0  0  0
  3  8  1  0  0  0  0
  3  9  1  0  0  0  0
  4 10  2  0  0  0  0
  5 11  2  0  0  0  0
  5  8  1  0  0  0  0
  6 12  1  0  0  0  0
  8 13  1  0  0  0  0
  9 14  2  0  0  0  0
 10 14  1  0  0  0  0
 12 15  1  0  0  0  0
 12 16  2  0  0  0  0
 13 17  1  0  0  0  0
 15 18  1  0  0  0  0
 15 19  2  0  0  0  0
 17 20  3  0  0  0  0
 18 21  2  0  0  0  0
 19 22  1  0  0  0  0
 21 23  1  0  0  0  0
 22 23  2  0  0  0  0
 23 24  1  0  0  0  0
M  END
>  <CdId>
13

>  <Mol Weight>
319.3539

>  <Formula>
C20H17NO3

>  <Click_ID>
CLK001B04 __  __  __

$$$$
CLK001B06 __  __  __
 OpenBabel03171423152D

 14 14  0  0  0  0  0  0  0  0999 V2000
    0.1038   -0.4751    0.0000 C   0  0  0  0  0  0  0  0  0  0  0  0
    0.8117   -0.0567    0.0000 C   0  0  0  0  0  0  0  0  0  0  0  0
   -0.6072   -0.0567    0.0000 C   0  0  0  0  0  0  0  0  0  0  0  0
    0.1038   -1.3119    0.0000 N   0  3  0  0  0  0  0  0  0  0  0  0
    0.8117    0.7645    0.0000 C   0  0  0  0  0  0  0  0  0  0  0  0
    1.5417   -0.4908    0.0000 C   0  0  0  0  0  0  0  0  0  0  0  0
   -0.6072    0.7645    0.0000 C   0  0  0  0  0  0  0  0  0  0  0  0
    0.8117   -1.7178    0.0000 O   0  0  0  0  0  0  0  0  0  0  0  0
   -0.6072   -1.7178    0.0000 O   0  5  0  0  0  0  0  0  0  0  0  0
    0.1038    1.1861    0.0000 C   0  0  0  0  0  0  0  0  0  0  0  0
    2.2716   -0.9313    0.0000 C   0  0  0  0  0  0  0  0  0  0  0  0
   -1.3371    1.2018    0.0000 N   0  3  0  0  0  0  0  0  0  0  0  0
   -2.0670    0.7866    0.0000 O   0  0  0  0  0  0  0  0  0  0  0  0
   -1.3371    2.0418    0.0000 O   0  5  0  0  0  0  0  0  0  0  0  0
  1  2  1  0  0  0  0
  1  3  2  0  0  0  0
  1  4  1  0  0  0  0
  2  5  2  0  0  0  0
  2  6  1  0  0  0  0
  3  7  1  0  0  0  0
  4  8  2  0  0  0  0
  4  9  1  0  0  0  0
  5 10  1  0  0  0  0
  6 11  3  0  0  0  0
  7 12  1  0  0  0  0
  7 10  2  0  0  0  0
 12 13  2  0  0  0  0
 12 14  1  0  0  0  0
M  CHG  4   4   1   9  -1  12   1  14  -1
M  END
>  <CdId>
15

>  <Mol Weight>
192.1284

>  <Formula>
C8H4N2O4

>  <Click_ID>
CLK001B06 __  __  __

$$$$
CLK001C05 __  __  __
 OpenBabel03171423152D

 13 13  0  0  0  0  0  0  0  0999 V2000
   -1.1703    0.1692    0.0000 C   0  0  0  0  0  0  0  0  0  0  0  0
   -0.7663   -0.5523    0.0000 C   0  0  0  0  0  0  0  0  0  0  0  0
   -0.7525    0.8733    0.0000 C   0  0  0  0  0  0  0  0  0  0  0  0
   -1.9953    0.1692    0.0000 N   0  3  0  0  0  0  0  0  0  0  0  0
    0.0587   -0.5558    0.0000 C   0  0  0  0  0  0  0  0  0  0  0  0
    0.0587    0.8733    0.0000 C   0  0  0  0  0  0  0  0  0  0  0  0
   -2.4164   -0.5454    0.0000 O   0  0  0  0  0  0  0  0  0  0  0  0
   -2.4060    0.8838    0.0000 O   0  5  0  0  0  0  0  0  0  0  0  0
    0.4729    0.1623    0.0000 C   0  0  0  0  0  0  0  0  0  0  0  0
    1.2980    0.1623    0.0000 O   0  0  0  0  0  0  0  0  0  0  0  0
    1.7122   -0.5523    0.0000 C   0  0  0  0  0  0  0  0  0  0  0  0
    2.5372   -0.5454    0.0000 C   0  0  0  0  0  0  0  0  0  0  0  0
    3.3622   -0.5454    0.0000 C   0  0  0  0  0  0  0  0  0  0  0  0
  1  2  1  0  0  0  0
  1  3  2  0  0  0  0
  1  4  1  0  0  0  0
  2  5  2  0  0  0  0
  3  6  1  0  0  0  0
  4  7  2  0  0  0  0
  4  8  1  0  0  0  0
  5  9  1  0  0  0  0
  6  9  2  0  0  0  0
  9 10  1  0  0  0  0
 10 11  1  0  0  0  0
 11 12  1  0  0  0  0
 12 13  3  0  0  0  0
M  CHG  2   4   1   8  -1
M  END
>  <CdId>
24

>  <Mol Weight>
177.1568

>  <Formula>
C9H7NO3

>  <Click_ID>
CLK001C05 __  __  __

$$$$
CLK001C06 __  __  __
 OpenBabel03171423152D

 15 15  0  0  0  0  0  0  0  0999 V2000
   -0.0584   -0.0097    0.0000 C   0  0  0  0  0  0  0  0  0  0  0  0
   -0.0584    0.8139    0.0000 C   0  0  0  0  0  0  0  0  0  0  0  0
    0.6778   -0.4443    0.0000 C   0  0  0  0  0  0  0  0  0  0  0  0
   -0.7685   -0.4313    0.0000 C   0  0  0  0  0  0  0  0  0  0  0  0
   -0.7685    1.2226    0.0000 C   0  0  0  0  0  0  0  0  0  0  0  0
    0.6778   -1.2777    0.0000 O   0  0  0  0  0  0  0  0  0  0  0  0
    1.3945   -0.0324    0.0000 O   0  0  0  0  0  0  0  0  0  0  0  0
   -1.4852   -0.0097    0.0000 C   0  0  0  0  0  0  0  0  0  0  0  0
   -1.4852    0.8139    0.0000 C   0  0  0  0  0  0  0  0  0  0  0  0
   -0.7685    2.0463    0.0000 N   0  3  0  0  0  0  0  0  0  0  0  0
    1.3945   -1.6928    0.0000 C   0  0  0  0  0  0  0  0  0  0  0  0
   -1.4755    2.4256    0.0000 O   0  0  0  0  0  0  0  0  0  0  0  0
   -0.0649    2.4451    0.0000 O   0  5  0  0  0  0  0  0  0  0  0  0
    1.3945   -2.5132    0.0000 C   0  0  0  0  0  0  0  0  0  0  0  0
    1.3977   -3.3564    0.0000 C   0  0  0  0  0  0  0  0  0  0  0  0
  1  2  2  0  0  0  0
  1  3  1  0  0  0  0
  1  4  1  0  0  0  0
  2  5  1  0  0  0  0
  3  6  1  0  0  0  0
  3  7  2  0  0  0  0
  4  8  2  0  0  0  0
  5  9  2  0  0  0  0
  5 10  1  0  0  0  0
  6 11  1  0  0  0  0
  8  9  1  0  0  0  0
 10 12  2  0  0  0  0
 10 13  1  0  0  0  0
 11 14  1  0  0  0  0
 14 15  3  0  0  0  0
M  CHG  2  10   1  13  -1
M  END
>  <CdId>
25

>  <Mol Weight>
205.1669

>  <Formula>
C10H7NO4

>  <Click_ID>
CLK001C06 __  __  __

$$$$
CLK001D05 __  __  __
 OpenBabel03171423152D

 29 32  0  0  0  0  0  0  0  0999 V2000
    0.4004    0.1968    0.0000 C   0  0  3  0  0  0  0  0  0  0  0  0
    0.8111   -0.5246    0.0000 C   0  0  0  0  0  0  0  0  0  0  0  0
    0.8111    0.9077    0.0000 C   0  0  0  0  0  0  0  0  0  0  0  0
   -0.4280    0.1968    0.0000 C   0  0  0  0  0  0  0  0  0  0  0  0
    1.6360   -0.5177    0.0000 C   0  0  0  0  0  0  0  0  0  0  0  0
    0.5626   -1.3046    0.0000 C   0  0  0  0  0  0  0  0  0  0  0  0
    1.6360    0.9077    0.0000 C   0  0  0  0  0  0  0  0  0  0  0  0
    0.4004    1.6222    0.0000 C   0  0  0  0  0  0  0  0  0  0  0  0
   -0.8456   -0.5177    0.0000 C   0  0  0  0  0  0  0  0  0  0  0  0
   -0.8387    0.9077    0.0000 C   0  0  0  0  0  0  0  0  0  0  0  0
    1.9018   -1.3046    0.0000 C   0  0  0  0  0  0  0  0  0  0  0  0
    2.0502    0.1968    0.0000 N   0  0  0  0  0  0  0  0  0  0  0  0
    1.2322   -1.7879    0.0000 C   0  0  0  0  0  0  0  0  0  0  0  0
   -0.2174   -1.5670    0.0000 O   0  0  0  0  0  0  0  0  0  0  0  0
    2.0502    1.6222    0.0000 C   0  0  0  0  0  0  0  0  0  0  0  0
    0.8215    2.3367    0.0000 O   0  0  0  0  0  0  0  0  0  0  0  0
   -0.4280    1.6222    0.0000 O   0  0  0  0  0  0  0  0  0  0  0  0
   -1.6706   -0.5177    0.0000 C   0  0  0  0  0  0  0  0  0  0  0  0
   -1.6671    0.9077    0.0000 C   0  0  0  0  0  0  0  0  0  0  0  0
    2.6508   -1.6325    0.0000 C   0  0  0  0  0  0  0  0  0  0  0  0
    1.3219   -2.6058    0.0000 C   0  0  0  0  0  0  0  0  0  0  0  0
    0.4073    3.0512    0.0000 C   0  0  0  0  0  0  0  0  0  0  0  0
   -2.0778    0.2002    0.0000 C   0  0  0  0  0  0  0  0  0  0  0  0
    2.7371   -2.4575    0.0000 C   0  0  0  0  0  0  0  0  0  0  0  0
    2.0743   -2.9442    0.0000 C   0  0  0  0  0  0  0  0  0  0  0  0
   -2.9027    0.2071    0.0000 O   0  0  0  0  0  0  0  0  0  0  0  0
   -3.3169    0.9250    0.0000 C   0  0  0  0  0  0  0  0  0  0  0  0
   -4.1418    0.9354    0.0000 C   0  0  0  0  0  0  0  0  0  0  0  0
   -4.9701    0.9388    0.0000 C   0  0  0  0  0  0  0  0  0  0  0  0
  1  2  1  0  0  0  0
  1  3  1  0  0  0  0
  1  4  1  0  0  0  0
  2  5  2  0  0  0  0
  2  6  1  0  0  0  0
  3  7  2  0  0  0  0
  3  8  1  0  0  0  0
  4  9  2  0  0  0  0
  4 10  1  0  0  0  0
  5 11  1  0  0  0  0
  5 12  1  0  0  0  0
  6 13  1  0  0  0  0
  6 14  2  0  0  0  0
  7 15  1  0  0  0  0
  7 12  1  0  0  0  0
  8 16  1  0  0  0  0
  8 17  2  0  0  0  0
  9 18  1  0  0  0  0
 10 19  2  0  0  0  0
 11 20  1  0  0  0  0
 11 13  2  0  0  0  0
 13 21  1  0  0  0  0
 16 22  1  0  0  0  0
 18 23  2  0  0  0  0
 19 23  1  0  0  0  0
 20 24  2  0  0  0  0
 21 25  2  0  0  0  0
 23 26  1  0  0  0  0
 24 25  1  0  0  0  0
 26 27  1  0  0  0  0
 27 28  1  0  0  0  0
 28 29  3  0  0  0  0
M  END
>  <CdId>
34

>  <Mol Weight>
385.412

>  <Formula>
C24H19NO4

>  <Click_ID>
CLK001D05 __  __  __

$$$$
CLK001D06 __  __  __
 OpenBabel03171423152D

 22 24  0  0  0  0  0  0  0  0999 V2000
   -0.1586   -0.0552    0.0000 N   0  0  0  0  0  0  0  0  0  0  0  0
   -0.1586    0.7723    0.0000 C   0  0  0  0  0  0  0  0  0  0  0  0
    0.5552   -0.4759    0.0000 C   0  0  0  0  0  0  0  0  0  0  0  0
   -0.8827   -0.4690    0.0000 C   0  0  0  0  0  0  0  0  0  0  0  0
   -0.8758    1.1930    0.0000 N   0  0  0  0  0  0  0  0  0  0  0  0
    0.5621    1.1827    0.0000 S   0  0  0  0  0  0  0  0  0  0  0  0
    0.5483   -1.2999    0.0000 C   0  0  0  0  0  0  0  0  0  0  0  0
    1.2654   -0.0621    0.0000 C   0  0  0  0  0  0  0  0  0  0  0  0
   -1.5965   -0.0552    0.0000 C   0  0  0  0  0  0  0  0  0  0  0  0
   -0.8827   -1.2930    0.0000 O   0  0  0  0  0  0  0  0  0  0  0  0
   -1.5965    0.7723    0.0000 C   0  0  0  0  0  0  0  0  0  0  0  0
    1.2758    0.7689    0.0000 C   0  0  0  0  0  0  0  0  0  0  0  0
    1.2620   -1.7137    0.0000 C   0  0  0  0  0  0  0  0  0  0  0  0
    1.9791   -0.4759    0.0000 C   0  0  0  0  0  0  0  0  0  0  0  0
   -2.3067   -0.4690    0.0000 C   0  0  0  0  0  0  0  0  0  0  0  0
   -2.3067    1.1861    0.0000 C   0  0  0  0  0  0  0  0  0  0  0  0
    1.9860    1.1861    0.0000 C   0  0  0  0  0  0  0  0  0  0  0  0
    1.9791   -1.3068    0.0000 C   0  0  0  0  0  0  0  0  0  0  0  0
   -3.0204   -0.0552    0.0000 C   0  0  0  0  0  0  0  0  0  0  0  0
   -3.0204    0.7723    0.0000 C   0  0  0  0  0  0  0  0  0  0  0  0
    2.6998    1.6068    0.0000 C   0  0  0  0  0  0  0  0  0  0  0  0
    2.6929   -1.7171    0.0000 C   0  0  0  0  0  0  0  0  0  0  0  0
  1  2  1  0  0  0  0
  1  3  1  0  0  0  0
  1  4  1  0  0  0  0
  2  5  2  0  0  0  0
  2  6  1  0  0  0  0
  3  7  2  0  0  0  0
  3  8  1  0  0  0  0
  4  9  1  0  0  0  0
  4 10  2  0  0  0  0
  5 11  1  0  0  0  0
  6 12  1  0  0  0  0
  7 13  1  0  0  0  0
  8 14  2  0  0  0  0
  9 15  2  0  0  0  0
  9 11  1  0  0  0  0
 11 16  2  0  0  0  0
 12 17  1  0  0  0  0
 13 18  2  0  0  0  0
 14 18  1  0  0  0  0
 15 19  1  0  0  0  0
 16 20  1  0  0  0  0
 17 21  3  0  0  0  0
 18 22  1  0  0  0  0
 19 20  2  0  0  0  0
M  END
>  <CdId>
35

>  <Mol Weight>
306.382

>  <Formula>
C18H14N2OS

>  <Click_ID>
CLK001D06 __  __  __

$$$$
CLK001D07 __  __  __
 OpenBabel03171423152D

 11 11  0  0  0  0  0  0  0  0999 V2000
    6.9542  -21.1875    0.0000 C   0  0  0  0  0  0  0  0  0  0  0  0
    3.6500  -21.1875    0.0000 C   0  0  0  0  0  0  0  0  0  0  0  0
    2.8250  -21.1875    0.0000 C   0  0  0  0  0  0  0  0  0  0  0  0
    6.1292  -21.1875    0.0000 C   0  0  0  0  0  0  0  0  0  0  0  0
    7.3667  -21.9000    0.0000 O   0  0  0  0  0  0  0  0  0  0  0  0
    4.4750  -21.1875    0.0000 C   0  0  0  0  0  0  0  0  0  0  0  0
    5.7167  -21.9042    0.0000 C   0  0  0  0  0  0  0  0  0  0  0  0
    5.7167  -20.4750    0.0000 C   0  0  0  0  0  0  0  0  0  0  0  0
    7.3667  -20.4667    0.0000 O   0  0  0  0  0  0  0  0  0  0  0  0
    4.8875  -21.9042    0.0000 C   0  0  0  0  0  0  0  0  0  0  0  0
    4.8875  -20.4750    0.0000 C   0  0  0  0  0  0  0  0  0  0  0  0
  2  6  1  0  0  0  0
  3  2  3  0  0  0  0
  4  1  1  0  0  0  0
  5  1  2  0  0  0  0
  6 11  1  0  0  0  0
  6 10  2  0  0  0  0
  7  4  2  0  0  0  0
  8  4  1  0  0  0  0
  9  1  1  0  0  0  0
 10  7  1  0  0  0  0
 11  8  2  0  0  0  0
M  END
>  <CdId>
36

>  <Mol Weight>
146.1427

>  <Formula>
C9H6O2

>  <Click_ID>
CLK001D07 __  __  __

$$$$
CLK001D09 __  __  __
 OpenBabel03171423152D

 31 35  0  0  0  0  0  0  0  0999 V2000
   -1.3837   -0.8832    0.0000 C   0  0  0  0  0  0  0  0  0  0  0  0
   -0.6956   -0.4904    0.0000 C   0  0  0  0  0  0  0  0  0  0  0  0
   -2.1193   -0.4904    0.0000 C   0  0  0  0  0  0  0  0  0  0  0  0
   -0.6956   -1.3086    0.0000 C   0  0  0  0  0  0  0  0  0  0  0  0
   -2.0818   -1.3086    0.0000 C   0  0  0  0  0  0  0  0  0  0  0  0
   -0.6956    0.3803    0.0000 C   0  0  0  0  0  0  0  0  0  0  0  0
    0.0300   -0.8832    0.0000 C   0  0  0  0  0  0  0  0  0  0  0  0
   -2.1193    0.3803    0.0000 C   0  0  0  0  0  0  0  0  0  0  0  0
   -0.6956   -2.1518    0.0000 C   0  0  0  0  0  0  0  0  0  0  0  0
   -2.0818   -2.1518    0.0000 C   0  0  0  0  0  0  0  0  0  0  0  0
   -1.3937    0.7681    0.0000 C   0  0  0  0  0  0  0  0  0  0  0  0
    0.0300    0.7681    0.0000 N   0  0  0  0  0  0  0  0  0  0  0  0
    0.7807   -0.4904    0.0000 N   0  0  0  0  0  0  0  0  0  0  0  0
    0.0300   -1.7315    0.0000 O   0  0  0  0  0  0  0  0  0  0  0  0
   -2.8174    0.7681    0.0000 C   0  0  0  0  0  0  0  0  0  0  0  0
   -1.3311   -2.5071    0.0000 C   0  0  0  0  0  0  0  0  0  0  0  0
   -1.3937    1.5939    0.0000 C   0  0  0  0  0  0  0  0  0  0  0  0
    0.7807    0.3803    0.0000 C   0  0  0  0  0  0  0  0  0  0  0  0
    1.4913   -0.8982    0.0000 C   0  0  0  0  0  0  0  0  0  0  0  0
   -2.8174    1.5939    0.0000 C   0  0  0  0  0  0  0  0  0  0  0  0
   -2.1193    2.0142    0.0000 C   0  0  0  0  0  0  0  0  0  0  0  0
    1.4913    0.8307    0.0000 S   0  0  0  0  0  0  0  0  0  0  0  0
    2.1969   -0.4904    0.0000 C   0  0  0  0  0  0  0  0  0  0  0  0
    1.4913    1.6939    0.0000 C   0  0  0  0  0  0  0  0  0  0  0  0
    2.1969    0.3353    0.0000 C   0  0  0  0  0  0  0  0  0  0  0  0
    2.9125   -0.9008    0.0000 C   0  0  0  0  0  0  0  0  0  0  0  0
    0.7731    2.0868    0.0000 C   0  0  0  0  0  0  0  0  0  0  0  0
    2.9125    0.7506    0.0000 C   0  0  0  0  0  0  0  0  0  0  0  0
    3.6231   -0.4904    0.0000 C   0  0  0  0  0  0  0  0  0  0  0  0
    0.0676    2.4921    0.0000 C   0  0  0  0  0  0  0  0  0  0  0  0
    3.6231    0.3353    0.0000 C   0  0  0  0  0  0  0  0  0  0  0  0
  1  2  1  0  0  0  0
  1  3  1  0  0  0  0
  1  4  1  0  0  0  0
  1  5  1  0  0  0  0
  2  6  2  0  0  0  0
  2  7  1  0  0  0  0
  3  8  1  0  0  0  0
  4  9  1  0  0  0  0
  5 10  1  0  0  0  0
  6 11  1  0  0  0  0
  6 12  1  0  0  0  0
  7 13  1  0  0  0  0
  7 14  2  0  0  0  0
  8 15  2  0  0  0  0
  8 11  1  0  0  0  0
  9 16  1  0  0  0  0
 10 16  1  0  0  0  0
 11 17  2  0  0  0  0
 12 18  2  0  0  0  0
 13 19  1  0  0  0  0
 13 18  1  0  0  0  0
 15 20  1  0  0  0  0
 17 21  1  0  0  0  0
 18 22  1  0  0  0  0
 19 23  1  0  0  0  0
 20 21  2  0  0  0  0
 22 24  1  0  0  0  0
 23 25  2  0  0  0  0
 23 26  1  0  0  0  0
 24 27  1  0  0  0  0
 25 28  1  0  0  0  0
 26 29  2  0  0  0  0
 27 30  3  0  0  0  0
 28 31  2  0  0  0  0
 29 31  1  0  0  0  0
M  END
>  <CdId>
38

>  <Mol Weight>
426.573

>  <Formula>
C27H26N2OS

>  <Click_ID>
CLK001D09 __  __  __

$$$$
CLK001D10 __  __  __
 OpenBabel03171423152D

 28 31  0  0  0  0  0  0  0  0999 V2000
    1.5975   -0.3529    0.0000 C   0  0  0  0  0  0  0  0  0  0  0  0
    2.1478   -0.9639    0.0000 C   0  0  0  0  0  0  0  0  0  0  0  0
    0.8500   -0.6868    0.0000 C   0  0  0  0  0  0  0  0  0  0  0  0
    1.8594    0.4288    0.0000 C   0  0  0  0  0  0  0  0  0  0  0  0
    1.7342   -1.6772    0.0000 N   0  0  0  0  0  0  0  0  0  0  0  0
    2.9599   -0.7968    0.0000 C   0  0  0  0  0  0  0  0  0  0  0  0
    0.9335   -1.5103    0.0000 C   0  0  0  0  0  0  0  0  0  0  0  0
    0.1366   -0.2770    0.0000 N   0  0  0  0  0  0  0  0  0  0  0  0
    2.6676    0.6034    0.0000 C   0  0  0  0  0  0  0  0  0  0  0  0
    2.0757   -2.4362    0.0000 C   0  0  0  0  0  0  0  0  0  0  0  0
    3.2178   -0.0113    0.0000 C   0  0  0  0  0  0  0  0  0  0  0  0
    0.3188   -2.0605    0.0000 O   0  0  0  0  0  0  0  0  0  0  0  0
    0.1366    0.5502    0.0000 N   0  0  0  0  0  0  0  0  0  0  0  0
    1.5862   -3.1041    0.0000 C   0  0  0  0  0  0  0  0  0  0  0  0
   -0.5806    0.9639    0.0000 C   0  0  0  0  0  0  0  0  0  0  0  0
    1.1042   -3.7681    0.0000 C   0  0  0  0  0  0  0  0  0  0  0  0
   -1.2940    0.5502    0.0000 C   0  0  0  0  0  0  0  0  0  0  0  0
   -0.5806    1.7873    0.0000 O   0  0  0  0  0  0  0  0  0  0  0  0
   -2.0188    0.9676    0.0000 C   0  0  0  0  0  0  0  0  0  0  0  0
   -1.2940   -0.2770    0.0000 C   0  0  0  0  0  0  0  0  0  0  0  0
   -2.0188    1.7911    0.0000 N   0  0  0  0  0  0  0  0  0  0  0  0
   -2.7246    0.5502    0.0000 C   0  0  0  0  0  0  0  0  0  0  0  0
   -2.0188   -0.6868    0.0000 C   0  0  0  0  0  0  0  0  0  0  0  0
   -1.3471    2.2844    0.0000 C   0  0  0  0  0  0  0  0  0  0  0  0
   -2.6828    2.2844    0.0000 C   0  0  0  0  0  0  0  0  0  0  0  0
   -2.7246   -0.2770    0.0000 C   0  0  0  0  0  0  0  0  0  0  0  0
   -1.6051    3.0661    0.0000 C   0  0  0  0  0  0  0  0  0  0  0  0
   -2.4323    3.0661    0.0000 C   0  0  0  0  0  0  0  0  0  0  0  0
  1  2  2  0  0  0  0
  1  3  1  0  0  0  0
  1  4  1  0  0  0  0
  2  5  1  0  0  0  0
  2  6  1  0  0  0  0
  3  7  1  0  0  0  0
  3  8  2  0  0  0  0
  4  9  2  0  0  0  0
  5 10  1  0  0  0  0
  5  7  1  0  0  0  0
  6 11  2  0  0  0  0
  7 12  2  0  0  0  0
  8 13  1  0  0  0  0
  9 11  1  0  0  0  0
 10 14  1  0  0  0  0
 13 15  1  0  0  0  0
 14 16  3  0  0  0  0
 15 17  1  0  0  0  0
 15 18  2  0  0  0  0
 17 19  1  0  0  0  0
 17 20  2  0  0  0  0
 19 21  1  0  0  0  0
 19 22  2  0  0  0  0
 20 23  1  0  0  0  0
 21 24  1  0  0  0  0
 21 25  1  0  0  0  0
 22 26  1  0  0  0  0
 23 26  2  0  0  0  0
 24 27  2  0  0  0  0
 25 28  2  0  0  0  0
 27 28  1  0  0  0  0
M  END
>  <CdId>
39

>  <Mol Weight>
368.388

>  <Formula>
C22H16N4O2

>  <Click_ID>
CLK001D10 __  __  __

$$$$
CLK001E05 __  __  __
 OpenBabel03171423152D

 19 19  0  0  0  0  0  0  0  0999 V2000
    1.6879   -0.4676    0.0000 C   0  0  0  0  0  0  0  0  0  0  0  0
    1.6879    0.3612    0.0000 N   0  0  0  0  0  0  0  0  0  0  0  0
    0.9733   -0.8783    0.0000 C   0  0  0  0  0  0  0  0  0  0  0  0
    2.4065   -0.8783    0.0000 C   0  0  0  0  0  0  0  0  0  0  0  0
    0.9733    0.7755    0.0000 C   0  0  0  0  0  0  0  0  0  0  0  0
    0.9733   -1.7070    0.0000 C   0  0  0  0  0  0  0  0  0  0  0  0
    2.4065   -1.7070    0.0000 C   0  0  0  0  0  0  0  0  0  0  0  0
    0.2547    0.3688    0.0000 C   0  0  0  0  0  0  0  0  0  0  0  0
    0.9733    1.6005    0.0000 O   0  0  0  0  0  0  0  0  0  0  0  0
    1.6879   -2.1213    0.0000 C   0  0  0  0  0  0  0  0  0  0  0  0
   -0.4524    0.7870    0.0000 C   0  0  0  0  0  0  0  0  0  0  0  0
   -0.4486    1.6120    0.0000 C   0  0  0  0  0  0  0  0  0  0  0  0
   -1.1595    2.0225    0.0000 C   0  0  0  0  0  0  0  0  0  0  0  0
   -1.8742    1.6157    0.0000 C   0  0  0  0  0  0  0  0  0  0  0  0
   -1.8742    0.7907    0.0000 C   0  0  0  0  0  0  0  0  0  0  0  0
   -2.5890    0.3801    0.0000 C   0  0  0  0  0  0  0  0  0  0  0  0
   -2.5890   -0.4447    0.0000 C   0  0  0  0  0  0  0  0  0  0  0  0
   -1.8742   -0.8516    0.0000 C   0  0  0  0  0  0  0  0  0  0  0  0
   -1.1595   -1.2621    0.0000 C   0  0  0  0  0  0  0  0  0  0  0  0
  1  2  1  0  0  0  0
  1  3  1  0  0  0  0
  1  4  1  0  0  0  0
  2  5  1  0  0  0  0
  3  6  1  0  0  0  0
  4  7  1  0  0  0  0
  5  8  1  0  0  0  0
  5  9  2  0  0  0  0
  6 10  1  0  0  0  0
  7 10  1  0  0  0  0
  8 11  1  0  0  0  0
 11 12  1  0  0  0  0
 12 13  1  0  0  0  0
 13 14  1  0  0  0  0
 14 15  1  0  0  0  0
 15 16  1  0  0  0  0
 16 17  1  0  0  0  0
 17 18  1  0  0  0  0
 18 19  3  0  0  0  0
M  END
>  <CdId>
44

>  <Mol Weight>
263.4183

>  <Formula>
C17H29NO

>  <Click_ID>
CLK001E05 __  __  __

$$$$
CLK001E07 __  __  __
 OpenBabel03171423152D

 26 28  0  0  0  0  0  0  0  0999 V2000
    1.6310    0.9276    0.0000 C   0  0  0  0  0  0  0  0  0  0  0  0
    1.1793    1.6138    0.0000 C   0  0  0  0  0  0  0  0  0  0  0  0
    1.1172    0.2828    0.0000 C   0  0  0  0  0  0  0  0  0  0  0  0
    2.4552    0.9655    0.0000 C   0  0  0  0  0  0  0  0  0  0  0  0
    0.3897    1.4034    0.0000 N   0  0  0  0  0  0  0  0  0  0  0  0
    1.5552    2.3448    0.0000 C   0  0  0  0  0  0  0  0  0  0  0  0
    0.3414    0.5759    0.0000 C   0  0  0  0  0  0  0  0  0  0  0  0
    1.3310   -0.5103    0.0000 C   0  0  0  0  0  0  0  0  0  0  0  0
    2.8310    1.7034    0.0000 C   0  0  0  0  0  0  0  0  0  0  0  0
   -0.2586    1.9172    0.0000 C   0  0  0  0  0  0  0  0  0  0  0  0
    2.3793    2.3897    0.0000 C   0  0  0  0  0  0  0  0  0  0  0  0
    0.7517   -1.0966    0.0000 C   0  0  0  0  0  0  0  0  0  0  0  0
   -0.1207    2.7310    0.0000 C   0  0  0  0  0  0  0  0  0  0  0  0
   -0.0448   -0.8931    0.0000 C   0  0  0  0  0  0  0  0  0  0  0  0
    0.9621   -1.8966    0.0000 C   0  0  0  0  0  0  0  0  0  0  0  0
    0.0552    3.5345    0.0000 C   0  0  0  0  0  0  0  0  0  0  0  0
   -0.6310   -1.4828    0.0000 N   0  0  0  0  0  0  0  0  0  0  0  0
   -0.2690   -0.0966    0.0000 O   0  0  0  0  0  0  0  0  0  0  0  0
    1.1759   -2.6931    0.0000 N   0  0  0  0  0  0  0  0  0  0  0  0
   -1.4586   -1.4724    0.0000 C   0  0  0  0  0  0  0  0  0  0  0  0
   -1.8690   -2.1931    0.0000 C   0  0  0  0  0  0  0  0  0  0  0  0
   -1.8621   -0.7552    0.0000 C   0  0  0  0  0  0  0  0  0  0  0  0
   -2.7069   -2.1862    0.0000 C   0  0  0  0  0  0  0  0  0  0  0  0
   -2.6966   -0.7483    0.0000 C   0  0  0  0  0  0  0  0  0  0  0  0
   -3.1103   -1.4621    0.0000 C   0  0  0  0  0  0  0  0  0  0  0  0
   -3.1207   -2.8966    0.0000 C   0  0  0  0  0  0  0  0  0  0  0  0
  1  2  1  0  0  0  0
  1  3  1  0  0  0  0
  1  4  2  0  0  0  0
  2  5  1  0  0  0  0
  2  6  2  0  0  0  0
  3  7  2  0  0  0  0
  3  8  1  0  0  0  0
  4  9  1  0  0  0  0
  5 10  1  0  0  0  0
  5  7  1  0  0  0  0
  6 11  1  0  0  0  0
  8 12  2  0  0  0  0
  9 11  2  0  0  0  0
 10 13  1  0  0  0  0
 12 14  1  0  0  0  0
 12 15  1  0  0  0  0
 13 16  3  0  0  0  0
 14 17  1  0  0  0  0
 14 18  2  0  0  0  0
 15 19  3  0  0  0  0
 17 20  1  0  0  0  0
 20 21  2  0  0  0  0
 20 22  1  0  0  0  0
 21 23  1  0  0  0  0
 22 24  2  0  0  0  0
 23 25  2  0  0  0  0
 23 26  1  0  0  0  0
 24 25  1  0  0  0  0
M  END
>  <CdId>
46

>  <Mol Weight>
339.3899

>  <Formula>
C22H17N3O

>  <Click_ID>
CLK001E07 __  __  __

$$$$
CLK001F05 __  __  __
 OpenBabel03171423152D

 18 18  0  0  0  0  0  0  0  0999 V2000
    3.0085   -0.0458    0.0000 C   0  0  0  0  0  0  0  0  0  0  0  0
    3.0936   -0.8894    0.0000 N   0  0  0  0  0  0  0  0  0  0  0  0
    3.7639    0.2845    0.0000 S   0  0  0  0  0  0  0  0  0  0  0  0
    2.2891    0.3728    0.0000 N   0  0  0  0  0  0  0  0  0  0  0  0
    3.8947   -1.0595    0.0000 C   0  0  0  0  0  0  0  0  0  0  0  0
    4.3165   -0.3401    0.0000 C   0  0  0  0  0  0  0  0  0  0  0  0
    1.5729   -0.0425    0.0000 C   0  0  0  0  0  0  0  0  0  0  0  0
    0.8600    0.3728    0.0000 C   0  0  0  0  0  0  0  0  0  0  0  0
    1.5729   -0.8633    0.0000 O   0  0  0  0  0  0  0  0  0  0  0  0
    0.1472   -0.0393    0.0000 C   0  0  0  0  0  0  0  0  0  0  0  0
   -0.5690    0.3793    0.0000 C   0  0  0  0  0  0  0  0  0  0  0  0
   -1.2819   -0.0327    0.0000 C   0  0  0  0  0  0  0  0  0  0  0  0
   -1.9947    0.3826    0.0000 C   0  0  0  0  0  0  0  0  0  0  0  0
   -2.7044   -0.0294    0.0000 C   0  0  0  0  0  0  0  0  0  0  0  0
   -3.4238    0.3859    0.0000 C   0  0  0  0  0  0  0  0  0  0  0  0
   -4.1334   -0.0262    0.0000 C   0  0  0  0  0  0  0  0  0  0  0  0
   -4.8463    0.3891    0.0000 C   0  0  0  0  0  0  0  0  0  0  0  0
   -5.5624    0.8045    0.0000 C   0  0  0  0  0  0  0  0  0  0  0  0
  1  2  2  0  0  0  0
  1  3  1  0  0  0  0
  1  4  1  0  0  0  0
  2  5  1  0  0  0  0
  3  6  1  0  0  0  0
  4  7  1  0  0  0  0
  5  6  2  0  0  0  0
  7  8  1  0  0  0  0
  7  9  2  0  0  0  0
  8 10  1  0  0  0  0
 10 11  1  0  0  0  0
 11 12  1  0  0  0  0
 12 13  1  0  0  0  0
 13 14  1  0  0  0  0
 14 15  1  0  0  0  0
 15 16  1  0  0  0  0
 16 17  1  0  0  0  0
 17 18  3  0  0  0  0
M  END
>  <CdId>
54

>  <Mol Weight>
264.386

>  <Formula>
C14H20N2OS

>  <Click_ID>
CLK001F05 __  __  __

$$$$
CLK001G05 __  __  __
 OpenBabel03171423152D

 22 23  0  0  0  0  0  0  0  0999 V2000
   -0.2953    0.1266    0.0000 C   0  0  0  0  0  0  0  0  0  0  0  0
    0.4284   -0.2694    0.0000 C   0  0  0  0  0  0  0  0  0  0  0  0
   -0.2953    0.9639    0.0000 C   0  0  0  0  0  0  0  0  0  0  0  0
   -1.0126   -0.2694    0.0000 C   0  0  0  0  0  0  0  0  0  0  0  0
    0.4284   -1.1067    0.0000 C   0  0  0  0  0  0  0  0  0  0  0  0
    1.1424    0.1428    0.0000 C   0  0  0  0  0  0  0  0  0  0  0  0
   -1.0126    1.3598    0.0000 C   0  0  0  0  0  0  0  0  0  0  0  0
    0.4284    1.3598    0.0000 C   0  0  0  0  0  0  0  0  0  0  0  0
   -1.0126   -1.1067    0.0000 C   0  0  0  0  0  0  0  0  0  0  0  0
   -1.7168    0.1428    0.0000 C   0  0  0  0  0  0  0  0  0  0  0  0
   -0.2953   -1.5221    0.0000 N   0  0  0  0  0  0  0  0  0  0  0  0
    1.1424   -1.5221    0.0000 S   0  0  0  0  0  0  0  0  0  0  0  0
    1.8499    0.5582    0.0000 N   0  0  0  0  0  0  0  0  0  0  0  0
   -1.0126    2.1874    0.0000 C   0  0  0  0  0  0  0  0  0  0  0  0
    0.4284    2.1874    0.0000 C   0  0  0  0  0  0  0  0  0  0  0  0
   -1.7168   -1.5221    0.0000 N   0  0  0  0  0  0  0  0  0  0  0  0
   -2.4341    0.5582    0.0000 N   0  0  0  0  0  0  0  0  0  0  0  0
    1.1424   -2.3498    0.0000 C   0  0  0  0  0  0  0  0  0  0  0  0
   -0.2953    2.5899    0.0000 C   0  0  0  0  0  0  0  0  0  0  0  0
    1.8499   -2.7554    0.0000 C   0  0  0  0  0  0  0  0  0  0  0  0
   -0.2953    3.4207    0.0000 O   0  0  0  0  0  0  0  0  0  0  0  0
    2.5639   -3.1676    0.0000 C   0  0  0  0  0  0  0  0  0  0  0  0
  1  2  1  0  0  0  0
  1  3  1  0  0  0  0
  1  4  2  0  0  0  0
  2  5  2  0  0  0  0
  2  6  1  0  0  0  0
  3  7  1  0  0  0  0
  3  8  2  0  0  0  0
  4  9  1  0  0  0  0
  4 10  1  0  0  0  0
  5 11  1  0  0  0  0
  5 12  1  0  0  0  0
  6 13  3  0  0  0  0
  7 14  2  0  0  0  0
  8 15  1  0  0  0  0
  9 16  1  0  0  0  0
  9 11  2  0  0  0  0
 10 17  3  0  0  0  0
 12 18  1  0  0  0  0
 14 19  1  0  0  0  0
 15 19  2  0  0  0  0
 18 20  1  0  0  0  0
 19 21  1  0  0  0  0
 20 22  3  0  0  0  0
M  END
>  <CdId>
64

>  <Mol Weight>
306.342

>  <Formula>
C16H10N4OS

>  <Click_ID>
CLK001G05 __  __  __

$$$$
CLK001G07 __  __  __
 OpenBabel03171423152D

 18 20  0  0  0  0  0  0  0  0999 V2000
   -1.0406    0.7654    0.0000 C   0  0  0  0  0  0  0  0  0  0  0  0
   -0.3356    0.3544    0.0000 C   0  0  0  0  0  0  0  0  0  0  0  0
   -1.7569    0.3544    0.0000 C   0  0  0  0  0  0  0  0  0  0  0  0
   -1.2027    1.5760    0.0000 C   0  0  0  0  0  0  0  0  0  0  0  0
   -0.3393   -0.4712    0.0000 C   0  0  0  0  0  0  0  0  0  0  0  0
    0.3657    0.7654    0.0000 C   0  0  0  0  0  0  0  0  0  0  0  0
   -1.7607   -0.4600    0.0000 C   0  0  0  0  0  0  0  0  0  0  0  0
   -2.3677    0.9161    0.0000 C   0  0  0  0  0  0  0  0  0  0  0  0
   -2.0246    1.6664    0.0000 C   0  0  0  0  0  0  0  0  0  0  0  0
    0.3657   -0.8784    0.0000 C   0  0  0  0  0  0  0  0  0  0  0  0
   -1.0481   -0.8747    0.0000 O   0  0  0  0  0  0  0  0  0  0  0  0
    1.0821    0.3544    0.0000 C   0  0  0  0  0  0  0  0  0  0  0  0
   -2.4770   -0.8672    0.0000 O   0  0  0  0  0  0  0  0  0  0  0  0
    1.0821   -0.4712    0.0000 C   0  0  0  0  0  0  0  0  0  0  0  0
    1.7984   -0.8860    0.0000 O   0  0  0  0  0  0  0  0  0  0  0  0
    2.5072   -0.4751    0.0000 C   0  0  0  0  0  0  0  0  0  0  0  0
    3.2160   -0.8898    0.0000 C   0  0  0  0  0  0  0  0  0  0  0  0
    3.9249   -0.4788    0.0000 C   0  0  0  0  0  0  0  0  0  0  0  0
  1  2  1  0  0  0  0
  1  3  2  0  0  0  0
  1  4  1  0  0  0  0
  2  5  2  0  0  0  0
  2  6  1  0  0  0  0
  3  7  1  0  0  0  0
  3  8  1  0  0  0  0
  4  9  1  0  0  0  0
  5 10  1  0  0  0  0
  5 11  1  0  0  0  0
  6 12  2  0  0  0  0
  7 13  2  0  0  0  0
  7 11  1  0  0  0  0
  8  9  1  0  0  0  0
 10 14  2  0  0  0  0
 12 14  1  0  0  0  0
 14 15  1  0  0  0  0
 15 16  1  0  0  0  0
 16 17  1  0  0  0  0
 17 18  3  0  0  0  0
M  END
>  <CdId>
66

>  <Mol Weight>
240.254

>  <Formula>
C15H12O3

>  <Click_ID>
CLK001G07 __  __  __

$$$$
CLK001G08 __  __  __
 OpenBabel03171423152D

 17 16  0  0  0  0  0  0  0  0999 V2000
    0.2018   -0.0723    0.0000 C   0  0  0  0  0  0  0  0  0  0  0  0
    0.9214    0.3312    0.0000 C   0  0  0  0  0  0  0  0  0  0  0  0
   -0.5064    0.3426    0.0000 C   0  0  0  0  0  0  0  0  0  0  0  0
    1.6372   -0.0838    0.0000 N   0  0  0  0  0  0  0  0  0  0  0  0
    0.9175    1.1575    0.0000 O   0  0  0  0  0  0  0  0  0  0  0  0
   -0.5026    1.1688    0.0000 C   0  0  0  0  0  0  0  0  0  0  0  0
    2.3529    0.3312    0.0000 C   0  0  0  0  0  0  0  0  0  0  0  0
   -1.2145    1.5839    0.0000 C   0  0  0  0  0  0  0  0  0  0  0  0
    3.0726   -0.0838    0.0000 C   0  0  0  0  0  0  0  0  0  0  0  0
   -1.9341    1.1727    0.0000 C   0  0  0  0  0  0  0  0  0  0  0  0
    3.0726   -0.9099    0.0000 C   0  0  0  0  0  0  0  0  0  0  0  0
   -1.9341    0.3502    0.0000 C   0  0  0  0  0  0  0  0  0  0  0  0
    2.3529   -1.3250    0.0000 C   0  0  0  0  0  0  0  0  0  0  0  0
   -2.6462   -0.0647    0.0000 C   0  0  0  0  0  0  0  0  0  0  0  0
   -2.6462   -0.8871    0.0000 C   0  0  0  0  0  0  0  0  0  0  0  0
   -1.9341   -1.2983    0.0000 C   0  0  0  0  0  0  0  0  0  0  0  0
   -1.2145   -1.7057    0.0000 C   0  0  0  0  0  0  0  0  0  0  0  0
  1  2  1  0  0  0  0
  1  3  1  0  0  0  0
  2  4  1  0  0  0  0
  2  5  2  0  0  0  0
  3  6  1  0  0  0  0
  4  7  1  0  0  0  0
  6  8  1  0  0  0  0
  7  9  1  0  0  0  0
  8 10  1  0  0  0  0
  9 11  1  0  0  0  0
 10 12  1  0  0  0  0
 11 13  1  0  0  0  0
 12 14  1  0  0  0  0
 14 15  1  0  0  0  0
 15 16  1  0  0  0  0
 16 17  3  0  0  0  0
M  END
>  <CdId>
67

>  <Mol Weight>
237.381

>  <Formula>
C15H27NO

>  <Click_ID>
CLK001G08 __  __  __

$$$$
CLK001G09 __  __  __
 OpenBabel03171423152D

 14 14  0  0  0  0  0  0  0  0999 V2000
   -0.1563    0.4391    0.0000 C   0  0  0  0  0  0  0  0  0  0  0  0
   -0.1563   -0.3859    0.0000 C   0  0  0  0  0  0  0  0  0  0  0  0
   -0.8699    0.8500    0.0000 C   0  0  0  0  0  0  0  0  0  0  0  0
    0.5672    0.8600    0.0000 C   0  0  0  0  0  0  0  0  0  0  0  0
   -0.8699   -0.7951    0.0000 N   0  0  0  0  0  0  0  0  0  0  0  0
    0.5672   -0.7951    0.0000 S   0  0  0  0  0  0  0  0  0  0  0  0
   -1.5802    0.4391    0.0000 C   0  0  0  0  0  0  0  0  0  0  0  0
   -0.8699    1.6850    0.0000 C   0  0  0  0  0  0  0  0  0  0  0  0
    1.2808    1.2841    0.0000 N   0  0  0  0  0  0  0  0  0  0  0  0
   -1.5802   -0.3859    0.0000 C   0  0  0  0  0  0  0  0  0  0  0  0
    1.2808   -0.3859    0.0000 C   0  0  0  0  0  0  0  0  0  0  0  0
   -2.3038   -0.7951    0.0000 O   0  0  0  0  0  0  0  0  0  0  0  0
    1.9893   -0.7951    0.0000 C   0  0  0  0  0  0  0  0  0  0  0  0
    2.7029   -1.2192    0.0000 C   0  0  0  0  0  0  0  0  0  0  0  0
  1  2  2  0  0  0  0
  1  3  1  0  0  0  0
  1  4  1  0  0  0  0
  2  5  1  0  0  0  0
  2  6  1  0  0  0  0
  3  7  2  0  0  0  0
  3  8  1  0  0  0  0
  4  9  3  0  0  0  0
  5 10  1  0  0  0  0
  6 11  1  0  0  0  0
  7 10  1  0  0  0  0
 10 12  2  0  0  0  0
 11 13  1  0  0  0  0
 13 14  3  0  0  0  0
M  END
>  <CdId>
68

>  <Mol Weight>
204.248

>  <Formula>
C10H8N2OS

>  <Click_ID>
CLK001G09 __  __  __

$$$$
CLK002B07 __  __  __
 OpenBabel03171423152D

 19 19  0  0  0  0  0  0  0  0999 V2000
    2.5498   -0.0915    0.0000 C   0  0  0  0  0  0  0  0  0  0  0  0
    1.8332    0.3240    0.0000 C   0  0  0  0  0  0  0  0  0  0  0  0
    3.3159    0.2439    0.0000 C   0  0  0  0  0  0  0  0  0  0  0  0
    2.6413   -0.9147    0.0000 O   0  0  0  0  0  0  0  0  0  0  0  0
    1.1167   -0.0915    0.0000 N   0  0  0  0  0  0  0  0  0  0  0  0
    3.8685   -0.3735    0.0000 C   0  0  0  0  0  0  0  0  0  0  0  0
    3.4531   -1.0900    0.0000 C   0  0  0  0  0  0  0  0  0  0  0  0
    0.3964    0.3240    0.0000 C   0  0  0  0  0  0  0  0  0  0  0  0
   -0.3202   -0.0800    0.0000 C   0  0  0  0  0  0  0  0  0  0  0  0
    0.3964    1.1548    0.0000 O   0  0  0  0  0  0  0  0  0  0  0  0
   -1.0290    0.3392    0.0000 C   0  0  0  0  0  0  0  0  0  0  0  0
   -1.0253    1.1624    0.0000 C   0  0  0  0  0  0  0  0  0  0  0  0
   -1.7380    1.5779    0.0000 C   0  0  0  0  0  0  0  0  0  0  0  0
   -2.4583    1.1663    0.0000 C   0  0  0  0  0  0  0  0  0  0  0  0
   -2.4583    0.3430    0.0000 C   0  0  0  0  0  0  0  0  0  0  0  0
   -3.1711   -0.0724    0.0000 C   0  0  0  0  0  0  0  0  0  0  0  0
   -3.1711   -0.8956    0.0000 C   0  0  0  0  0  0  0  0  0  0  0  0
   -2.4583   -1.3073    0.0000 C   0  0  0  0  0  0  0  0  0  0  0  0
   -1.7380   -1.7151    0.0000 C   0  0  0  0  0  0  0  0  0  0  0  0
  1  2  1  0  0  0  0
  1  3  2  0  0  0  0
  1  4  1  0  0  0  0
  2  5  1  0  0  0  0
  3  6  1  0  0  0  0
  4  7  1  0  0  0  0
  5  8  1  0  0  0  0
  6  7  2  0  0  0  0
  8  9  1  0  0  0  0
  8 10  2  0  0  0  0
  9 11  1  0  0  0  0
 11 12  1  0  0  0  0
 12 13  1  0  0  0  0
 13 14  1  0  0  0  0
 14 15  1  0  0  0  0
 15 16  1  0  0  0  0
 16 17  1  0  0  0  0
 17 18  1  0  0  0  0
 18 19  3  0  0  0  0
M  END
>  <CdId>
96

>  <Mol Weight>
261.3593

>  <Formula>
C16H23NO2

>  <Click_ID>
CLK002B07 __  __  __

$$$$
CLK002C03 __  __  __
 OpenBabel03171423152D

 20 20  0  0  0  0  0  0  0  0999 V2000
    2.3591   -0.0494    0.0000 C   0  0  0  0  0  0  0  0  0  0  0  0
    1.6438    0.3652    0.0000 C   0  0  0  0  0  0  0  0  0  0  0  0
    2.3553   -0.8790    0.0000 C   0  0  0  0  0  0  0  0  0  0  0  0
    3.0707    0.3652    0.0000 C   0  0  0  0  0  0  0  0  0  0  0  0
    0.9246   -0.0494    0.0000 N   0  0  0  0  0  0  0  0  0  0  0  0
    3.0707   -1.2899    0.0000 C   0  0  0  0  0  0  0  0  0  0  0  0
    3.7898   -0.0494    0.0000 C   0  0  0  0  0  0  0  0  0  0  0  0
    0.2093    0.3652    0.0000 C   0  0  0  0  0  0  0  0  0  0  0  0
    3.7898   -0.8790    0.0000 C   0  0  0  0  0  0  0  0  0  0  0  0
   -0.5099   -0.0418    0.0000 C   0  0  0  0  0  0  0  0  0  0  0  0
    0.2093    1.1910    0.0000 O   0  0  0  0  0  0  0  0  0  0  0  0
   -1.2176    0.3767    0.0000 C   0  0  0  0  0  0  0  0  0  0  0  0
   -1.2138    1.1986    0.0000 C   0  0  0  0  0  0  0  0  0  0  0  0
   -1.9253    1.6134    0.0000 C   0  0  0  0  0  0  0  0  0  0  0  0
   -2.6407    1.2062    0.0000 C   0  0  0  0  0  0  0  0  0  0  0  0
   -2.6407    0.3805    0.0000 C   0  0  0  0  0  0  0  0  0  0  0  0
   -3.3561   -0.0305    0.0000 C   0  0  0  0  0  0  0  0  0  0  0  0
   -3.3561   -0.8562    0.0000 C   0  0  0  0  0  0  0  0  0  0  0  0
   -2.6407   -1.2632    0.0000 C   0  0  0  0  0  0  0  0  0  0  0  0
   -1.9253   -1.6742    0.0000 C   0  0  0  0  0  0  0  0  0  0  0  0
  1  2  1  0  0  0  0
  1  3  1  0  0  0  0
  1  4  2  0  0  0  0
  2  5  1  0  0  0  0
  3  6  2  0  0  0  0
  4  7  1  0  0  0  0
  5  8  1  0  0  0  0
  6  9  1  0  0  0  0
  7  9  2  0  0  0  0
  8 10  1  0  0  0  0
  8 11  2  0  0  0  0
 10 12  1  0  0  0  0
 12 13  1  0  0  0  0
 13 14  1  0  0  0  0
 14 15  1  0  0  0  0
 15 16  1  0  0  0  0
 16 17  1  0  0  0  0
 17 18  1  0  0  0  0
 18 19  1  0  0  0  0
 19 20  3  0  0  0  0
M  END
>  <CdId>
102

>  <Mol Weight>
271.3972

>  <Formula>
C18H25NO

>  <Click_ID>
CLK002C03 __  __  __

$$$$
CLK002D03 __  __  __
 OpenBabel03171423152D

 20 20  0  0  0  0  0  0  0  0999 V2000
    1.7488   -0.0685    0.0000 C   0  0  0  0  0  0  0  0  0  0  0  0
    2.4635   -0.4866    0.0000 C   0  0  0  0  0  0  0  0  0  0  0  0
    1.7450    0.7528    0.0000 C   0  0  0  0  0  0  0  0  0  0  0  0
    1.0303   -0.4828    0.0000 N   0  0  0  0  0  0  0  0  0  0  0  0
    3.1783   -0.0722    0.0000 C   0  0  0  0  0  0  0  0  0  0  0  0
    2.4635    1.1671    0.0000 C   0  0  0  0  0  0  0  0  0  0  0  0
    0.3155   -0.0685    0.0000 C   0  0  0  0  0  0  0  0  0  0  0  0
    3.1783    0.7528    0.0000 C   0  0  0  0  0  0  0  0  0  0  0  0
   -0.4030   -0.4752    0.0000 C   0  0  0  0  0  0  0  0  0  0  0  0
    0.3155    0.7565    0.0000 O   0  0  0  0  0  0  0  0  0  0  0  0
    3.8929    1.1671    0.0000 C   0  0  0  0  0  0  0  0  0  0  0  0
   -1.1101   -0.0570    0.0000 C   0  0  0  0  0  0  0  0  0  0  0  0
   -1.1025    0.7680    0.0000 C   0  0  0  0  0  0  0  0  0  0  0  0
   -1.8172    1.1786    0.0000 C   0  0  0  0  0  0  0  0  0  0  0  0
   -2.5320    0.7717    0.0000 C   0  0  0  0  0  0  0  0  0  0  0  0
   -2.5320   -0.0533    0.0000 C   0  0  0  0  0  0  0  0  0  0  0  0
   -3.2429   -0.4638    0.0000 C   0  0  0  0  0  0  0  0  0  0  0  0
   -3.2429   -1.2888    0.0000 C   0  0  0  0  0  0  0  0  0  0  0  0
   -2.5320   -1.6955    0.0000 C   0  0  0  0  0  0  0  0  0  0  0  0
   -1.8172   -2.1061    0.0000 C   0  0  0  0  0  0  0  0  0  0  0  0
  1  2  1  0  0  0  0
  1  3  2  0  0  0  0
  1  4  1  0  0  0  0
  2  5  2  0  0  0  0
  3  6  1  0  0  0  0
  4  7  1  0  0  0  0
  5  8  1  0  0  0  0
  6  8  2  0  0  0  0
  7  9  1  0  0  0  0
  7 10  2  0  0  0  0
  8 11  1  0  0  0  0
  9 12  1  0  0  0  0
 12 13  1  0  0  0  0
 13 14  1  0  0  0  0
 14 15  1  0  0  0  0
 15 16  1  0  0  0  0
 16 17  1  0  0  0  0
 17 18  1  0  0  0  0
 18 19  1  0  0  0  0
 19 20  3  0  0  0  0
M  END
>  <CdId>
112

>  <Mol Weight>
271.3972

>  <Formula>
C18H25NO

>  <Click_ID>
CLK002D03 __  __  __

$$$$
CLK002D05 __  __  __
 OpenBabel03171423152D

 21 21  0  0  0  0  0  0  0  0999 V2000
    1.5627   -0.1673    0.0000 C   0  0  0  0  0  0  0  0  0  0  0  0
    0.8479   -0.5779    0.0000 C   0  0  0  0  0  0  0  0  0  0  0  0
    2.2775   -0.5779    0.0000 C   0  0  0  0  0  0  0  0  0  0  0  0
    1.5627    0.6616    0.0000 N   0  0  0  0  0  0  0  0  0  0  0  0
    0.8479   -1.4069    0.0000 C   0  0  0  0  0  0  0  0  0  0  0  0
    2.2775   -1.4069    0.0000 C   0  0  0  0  0  0  0  0  0  0  0  0
    0.8479    1.0761    0.0000 C   0  0  0  0  0  0  0  0  0  0  0  0
    1.5627   -1.8212    0.0000 C   0  0  0  0  0  0  0  0  0  0  0  0
    0.1292    0.6692    0.0000 C   0  0  0  0  0  0  0  0  0  0  0  0
    0.8441    1.9011    0.0000 O   0  0  0  0  0  0  0  0  0  0  0  0
    1.5589   -2.6426    0.0000 O   0  0  0  0  0  0  0  0  0  0  0  0
   -0.5779    1.0874    0.0000 C   0  0  0  0  0  0  0  0  0  0  0  0
    0.8479   -3.0608    0.0000 C   0  0  0  0  0  0  0  0  0  0  0  0
   -0.5741    1.9087    0.0000 C   0  0  0  0  0  0  0  0  0  0  0  0
   -1.2851    2.3232    0.0000 C   0  0  0  0  0  0  0  0  0  0  0  0
   -2.0037    1.9163    0.0000 C   0  0  0  0  0  0  0  0  0  0  0  0
   -2.0037    1.0913    0.0000 C   0  0  0  0  0  0  0  0  0  0  0  0
   -2.7148    0.6806    0.0000 C   0  0  0  0  0  0  0  0  0  0  0  0
   -2.7148   -0.1444    0.0000 C   0  0  0  0  0  0  0  0  0  0  0  0
   -2.0037   -0.5513    0.0000 C   0  0  0  0  0  0  0  0  0  0  0  0
   -1.2851   -0.9619    0.0000 C   0  0  0  0  0  0  0  0  0  0  0  0
  1  2  1  0  0  0  0
  1  3  2  0  0  0  0
  1  4  1  0  0  0  0
  2  5  2  0  0  0  0
  3  6  1  0  0  0  0
  4  7  1  0  0  0  0
  5  8  1  0  0  0  0
  6  8  2  0  0  0  0
  7  9  1  0  0  0  0
  7 10  2  0  0  0  0
  8 11  1  0  0  0  0
  9 12  1  0  0  0  0
 11 13  1  0  0  0  0
 12 14  1  0  0  0  0
 14 15  1  0  0  0  0
 15 16  1  0  0  0  0
 16 17  1  0  0  0  0
 17 18  1  0  0  0  0
 18 19  1  0  0  0  0
 19 20  1  0  0  0  0
 20 21  3  0  0  0  0
M  END
>  <CdId>
114

>  <Mol Weight>
287.3966

>  <Formula>
C18H25NO2

>  <Click_ID>
CLK002D05 __  __  __

$$$$
CLK002F05 __  __  __
 OpenBabel03171423152D

 32 32  0  0  0  0  0  0  0  0999 V2000
   -2.8562   -0.4219    0.0000 C   0  0  3  0  0  0  0  0  0  0  0  0
   -2.8562    0.4045    0.0000 C   0  0  3  0  0  0  0  0  0  0  0  0
   -2.1438   -0.8368    0.0000 O   0  0  0  0  0  0  0  0  0  0  0  0
   -3.5719   -0.8264    0.0000 O   0  0  0  0  0  0  0  0  0  0  0  0
   -2.1438    0.8195    0.0000 O   0  0  0  0  0  0  0  0  0  0  0  0
   -3.5719    0.8264    0.0000 O   0  0  0  0  0  0  0  0  0  0  0  0
   -2.1438   -1.6632    0.0000 C   0  0  0  0  0  0  0  0  0  0  0  0
   -4.2877   -0.4219    0.0000 C   0  0  0  0  0  0  0  0  0  0  0  0
   -2.1438    1.6459    0.0000 C   0  0  0  0  0  0  0  0  0  0  0  0
   -4.2877    0.4045    0.0000 C   0  0  0  0  0  0  0  0  0  0  0  0
   -1.4280   -2.0678    0.0000 C   0  0  0  0  0  0  0  0  0  0  0  0
   -2.8562   -2.0781    0.0000 O   0  0  0  0  0  0  0  0  0  0  0  0
   -1.4280    2.0609    0.0000 C   0  0  0  0  0  0  0  0  0  0  0  0
   -2.8631    2.0609    0.0000 O   0  0  0  0  0  0  0  0  0  0  0  0
   -0.7158   -1.6563    0.0000 C   0  0  0  0  0  0  0  0  0  0  0  0
   -0.7158    1.6529    0.0000 C   0  0  0  0  0  0  0  0  0  0  0  0
    0.0000   -2.0678    0.0000 C   0  0  0  0  0  0  0  0  0  0  0  0
    0.0000    2.0678    0.0000 C   0  0  0  0  0  0  0  0  0  0  0  0
    0.7158   -1.6563    0.0000 C   0  0  0  0  0  0  0  0  0  0  0  0
    0.7158    1.6529    0.0000 C   0  0  0  0  0  0  0  0  0  0  0  0
    1.4280   -2.0643    0.0000 C   0  0  0  0  0  0  0  0  0  0  0  0
    1.4280    2.0678    0.0000 C   0  0  0  0  0  0  0  0  0  0  0  0
    2.1438   -1.6493    0.0000 C   0  0  0  0  0  0  0  0  0  0  0  0
    2.1438    1.6598    0.0000 C   0  0  0  0  0  0  0  0  0  0  0  0
    2.8596   -2.0574    0.0000 C   0  0  0  0  0  0  0  0  0  0  0  0
    2.8596    2.0712    0.0000 C   0  0  0  0  0  0  0  0  0  0  0  0
    3.5719   -1.6424    0.0000 C   0  0  0  0  0  0  0  0  0  0  0  0
    3.5719    1.6667    0.0000 C   0  0  0  0  0  0  0  0  0  0  0  0
    4.2877   -2.0574    0.0000 C   0  0  0  0  0  0  0  0  0  0  0  0
    4.2877    2.0816    0.0000 C   0  0  0  0  0  0  0  0  0  0  0  0
    5.0000   -1.6424    0.0000 C   0  0  0  0  0  0  0  0  0  0  0  0
    5.0000    1.6667    0.0000 C   0  0  0  0  0  0  0  0  0  0  0  0
  1  2  1  0  0  0  0
  1  3  1  0  0  0  0
  1  4  1  0  0  0  0
  2  5  1  0  0  0  0
  2  6  1  0  0  0  0
  3  7  1  0  0  0  0
  4  8  1  0  0  0  0
  5  9  1  0  0  0  0
  6 10  1  0  0  0  0
  7 11  1  0  0  0  0
  7 12  2  0  0  0  0
  8 10  1  0  0  0  0
  9 13  1  0  0  0  0
  9 14  2  0  0  0  0
 11 15  1  0  0  0  0
 13 16  1  0  0  0  0
 15 17  1  0  0  0  0
 16 18  1  0  0  0  0
 17 19  1  0  0  0  0
 18 20  1  0  0  0  0
 19 21  1  0  0  0  0
 20 22  1  0  0  0  0
 21 23  1  0  0  0  0
 22 24  1  0  0  0  0
 23 25  1  0  0  0  0
 24 26  1  0  0  0  0
 25 27  1  0  0  0  0
 26 28  1  0  0  0  0
 27 29  1  0  0  0  0
 28 30  1  0  0  0  0
 29 31  3  0  0  0  0
 30 32  3  0  0  0  0
M  END
>  <CdId>
134

>  <Mol Weight>
448.5922

>  <Formula>
C26H40O6

>  <Click_ID>
CLK002F05 __  __  __

$$$$
CLK003B06 __  __  __
 OpenBabel03171423152D

 24 26  0  0  0  0  0  0  0  0999 V2000
   -0.7955    0.9173    0.0000 C   0  0  0  0  0  0  0  0  0  0  0  0
   -0.2589    1.5225    0.0000 C   0  0  0  0  0  0  0  0  0  0  0  0
   -1.5987    1.0011    0.0000 N   0  0  0  0  0  0  0  0  0  0  0  0
   -0.6205    0.1294    0.0000 N   0  0  0  0  0  0  0  0  0  0  0  0
    0.5367    1.3588    0.0000 C   0  0  0  0  0  0  0  0  0  0  0  0
   -0.5519    2.3980    0.0000 C   0  0  0  0  0  0  0  0  0  0  0  0
   -1.9260    0.2550    0.0000 C   0  0  0  0  0  0  0  0  0  0  0  0
   -1.3209   -0.2817    0.0000 C   0  0  0  0  0  0  0  0  0  0  0  0
    0.7993    0.5824    0.0000 C   0  0  0  0  0  0  0  0  0  0  0  0
   -0.8412    3.2773    0.0000 N   0  0  0  0  0  0  0  0  0  0  0  0
   -2.6987   -0.0076    0.0000 C   0  0  0  0  0  0  0  0  0  0  0  0
   -1.4768   -1.0849    0.0000 C   0  0  0  0  0  0  0  0  0  0  0  0
    1.6063    0.4111    0.0000 C   0  0  0  0  0  0  0  0  0  0  0  0
    0.2474   -0.0457    0.0000 C   0  0  0  0  0  0  0  0  0  0  0  0
   -2.8547   -0.8032    0.0000 C   0  0  0  0  0  0  0  0  0  0  0  0
   -2.2571   -1.3398    0.0000 C   0  0  0  0  0  0  0  0  0  0  0  0
    1.8689   -0.3769    0.0000 C   0  0  0  0  0  0  0  0  0  0  0  0
    0.5101   -0.8298    0.0000 C   0  0  0  0  0  0  0  0  0  0  0  0
   -3.6427   -1.0696    0.0000 C   0  0  0  0  0  0  0  0  0  0  0  0
    1.3246   -0.9972    0.0000 C   0  0  0  0  0  0  0  0  0  0  0  0
    2.6834   -0.5405    0.0000 O   0  0  0  0  0  0  0  0  0  0  0  0
    2.9423   -1.3284    0.0000 C   0  0  0  0  0  0  0  0  0  0  0  0
    3.7568   -1.4921    0.0000 C   0  0  0  0  0  0  0  0  0  0  0  0
    4.5676   -1.6595    0.0000 C   0  0  0  0  0  0  0  0  0  0  0  0
  1  2  1  0  0  0  0
  1  3  1  0  0  0  0
  1  4  2  0  0  0  0
  2  5  2  0  0  0  0
  2  6  1  0  0  0  0
  3  7  1  0  0  0  0
  4  8  1  0  0  0  0
  5  9  1  0  0  0  0
  6 10  3  0  0  0  0
  7 11  1  0  0  0  0
  7  8  2  0  0  0  0
  8 12  1  0  0  0  0
  9 13  2  0  0  0  0
  9 14  1  0  0  0  0
 11 15  2  0  0  0  0
 12 16  2  0  0  0  0
 13 17  1  0  0  0  0
 14 18  2  0  0  0  0
 15 19  1  0  0  0  0
 15 16  1  0  0  0  0
 17 20  2  0  0  0  0
 17 21  1  0  0  0  0
 18 20  1  0  0  0  0
 21 22  1  0  0  0  0
 22 23  1  0  0  0  0
 23 24  3  0  0  0  0
M  END
>  <CdId>
175

>  <Mol Weight>
313.3526

>  <Formula>
C20H15N3O

>  <Click_ID>
CLK003B06 __  __  __

$$$$
CLK003D03 __  __  __
 OpenBabel03171423152D

 19 19  0  0  0  0  0  0  0  0999 V2000
    1.6879   -0.4676    0.0000 C   0  0  0  0  0  0  0  0  0  0  0  0
    1.6879    0.3612    0.0000 N   0  0  0  0  0  0  0  0  0  0  0  0
    0.9733   -0.8783    0.0000 C   0  0  0  0  0  0  0  0  0  0  0  0
    2.4065   -0.8783    0.0000 C   0  0  0  0  0  0  0  0  0  0  0  0
    0.9733    0.7755    0.0000 C   0  0  0  0  0  0  0  0  0  0  0  0
    0.9733   -1.7070    0.0000 C   0  0  0  0  0  0  0  0  0  0  0  0
    2.4065   -1.7070    0.0000 C   0  0  0  0  0  0  0  0  0  0  0  0
    0.2547    0.3688    0.0000 C   0  0  0  0  0  0  0  0  0  0  0  0
    0.9733    1.6005    0.0000 O   0  0  0  0  0  0  0  0  0  0  0  0
    1.6879   -2.1213    0.0000 C   0  0  0  0  0  0  0  0  0  0  0  0
   -0.4524    0.7870    0.0000 C   0  0  0  0  0  0  0  0  0  0  0  0
   -0.4486    1.6120    0.0000 C   0  0  0  0  0  0  0  0  0  0  0  0
   -1.1595    2.0225    0.0000 C   0  0  0  0  0  0  0  0  0  0  0  0
   -1.8742    1.6157    0.0000 C   0  0  0  0  0  0  0  0  0  0  0  0
   -1.8742    0.7907    0.0000 C   0  0  0  0  0  0  0  0  0  0  0  0
   -2.5890    0.3801    0.0000 C   0  0  0  0  0  0  0  0  0  0  0  0
   -2.5890   -0.4447    0.0000 C   0  0  0  0  0  0  0  0  0  0  0  0
   -1.8742   -0.8516    0.0000 C   0  0  0  0  0  0  0  0  0  0  0  0
   -1.1595   -1.2621    0.0000 C   0  0  0  0  0  0  0  0  0  0  0  0
  1  2  1  0  0  0  0
  1  3  1  0  0  0  0
  1  4  2  0  0  0  0
  2  5  1  0  0  0  0
  3  6  2  0  0  0  0
  4  7  1  0  0  0  0
  5  8  1  0  0  0  0
  5  9  2  0  0  0  0
  6 10  1  0  0  0  0
  7 10  2  0  0  0  0
  8 11  1  0  0  0  0
 11 12  1  0  0  0  0
 12 13  1  0  0  0  0
 13 14  1  0  0  0  0
 14 15  1  0  0  0  0
 15 16  1  0  0  0  0
 16 17  1  0  0  0  0
 17 18  1  0  0  0  0
 18 19  3  0  0  0  0
M  END
>  <CdId>
192

>  <Mol Weight>
257.3706

>  <Formula>
C17H23NO

>  <Click_ID>
CLK003D03 __  __  __

$$$$
CLK003D07 __  __  __
 OpenBabel03171423152D

 16 17  0  0  0  0  0  0  0  0999 V2000
   -0.7328   -0.3353    0.0000 C   0  0  0  0  0  0  0  0  0  0  0  0
   -0.7328    0.4834    0.0000 C   0  0  0  0  0  0  0  0  0  0  0  0
   -0.0156   -0.7407    0.0000 N   0  0  0  0  0  0  0  0  0  0  0  0
   -1.4579   -0.7407    0.0000 C   0  0  0  0  0  0  0  0  0  0  0  0
   -0.0156    0.9044    0.0000 C   0  0  0  0  0  0  0  0  0  0  0  0
   -1.4579    0.9044    0.0000 C   0  0  0  0  0  0  0  0  0  0  0  0
    0.7251   -0.3353    0.0000 C   0  0  0  0  0  0  0  0  0  0  0  0
   -2.1362   -0.3353    0.0000 C   0  0  0  0  0  0  0  0  0  0  0  0
    0.7251    0.4834    0.0000 N   0  0  0  0  0  0  0  0  0  0  0  0
    0.0468    1.7464    0.0000 C   0  0  0  0  0  0  0  0  0  0  0  0
   -2.1362    0.4834    0.0000 C   0  0  0  0  0  0  0  0  0  0  0  0
    1.4502   -0.7875    0.0000 S   0  0  0  0  0  0  0  0  0  0  0  0
   -2.8457    0.9044    0.0000 C   0  0  0  0  0  0  0  0  0  0  0  0
    2.1597   -0.4210    0.0000 C   0  0  0  0  0  0  0  0  0  0  0  0
    2.8380   -0.8732    0.0000 C   0  0  0  0  0  0  0  0  0  0  0  0
    3.5631   -1.3566    0.0000 C   0  0  0  0  0  0  0  0  0  0  0  0
  1  2  2  0  0  0  0
  1  3  1  0  0  0  0
  1  4  1  0  0  0  0
  2  5  1  0  0  0  0
  2  6  1  0  0  0  0
  3  7  2  0  0  0  0
  4  8  2  0  0  0  0
  5  9  2  0  0  0  0
  5 10  1  0  0  0  0
  6 11  2  0  0  0  0
  7 12  1  0  0  0  0
  7  9  1  0  0  0  0
  8 11  1  0  0  0  0
 11 13  1  0  0  0  0
 12 14  1  0  0  0  0
 14 15  1  0  0  0  0
 15 16  3  0  0  0  0
M  END
>  <CdId>
196

>  <Mol Weight>
228.313

>  <Formula>
C13H12N2S

>  <Click_ID>
CLK003D07 __  __  __

$$$$
CLK004D09 __  __  __
 OpenBabel03171423152D

 17 18  0  0  0  0  0  0  0  0999 V2000
    0.5734    0.0622    0.0000 C   0  0  0  0  0  0  0  0  0  0  0  0
    0.3144    0.8429    0.0000 C   0  0  0  0  0  0  0  0  0  0  0  0
   -0.1105   -0.4318    0.0000 C   0  0  0  0  0  0  0  0  0  0  0  0
    1.3784   -0.1243    0.0000 C   0  0  0  0  0  0  0  0  0  0  0  0
   -0.5112    0.8532    0.0000 N   0  0  0  0  0  0  0  0  0  0  0  0
    0.8740    1.4543    0.0000 C   0  0  0  0  0  0  0  0  0  0  0  0
   -0.7669    0.0622    0.0000 C   0  0  0  0  0  0  0  0  0  0  0  0
   -0.1105   -1.2644    0.0000 C   0  0  0  0  0  0  0  0  0  0  0  0
    1.9276    0.4906    0.0000 C   0  0  0  0  0  0  0  0  0  0  0  0
   -1.0018    1.5304    0.0000 C   0  0  0  0  0  0  0  0  0  0  0  0
    1.6754    1.2782    0.0000 C   0  0  0  0  0  0  0  0  0  0  0  0
   -0.8256   -1.6754    0.0000 C   0  0  0  0  0  0  0  0  0  0  0  0
   -0.6495    2.2627    0.0000 C   0  0  0  0  0  0  0  0  0  0  0  0
   -0.8256   -2.5045    0.0000 N   0  3  0  0  0  0  0  0  0  0  0  0
   -0.2764    2.9985    0.0000 C   0  0  0  0  0  0  0  0  0  0  0  0
   -0.1105   -2.9156    0.0000 O   0  0  0  0  0  0  0  0  0  0  0  0
   -1.5442   -2.9156    0.0000 O   0  5  0  0  0  0  0  0  0  0  0  0
  1  2  1  0  0  0  0
  1  3  1  0  0  0  0
  1  4  2  0  0  0  0
  2  5  1  0  0  0  0
  2  6  2  0  0  0  0
  3  7  2  0  0  0  0
  3  8  1  0  0  0  0
  4  9  1  0  0  0  0
  5 10  1  0  0  0  0
  5  7  1  0  0  0  0
  6 11  1  0  0  0  0
  8 12  2  0  0  0  0
  9 11  2  0  0  0  0
 10 13  1  0  0  0  0
 12 14  1  0  0  0  0
 13 15  3  0  0  0  0
 14 16  2  0  0  0  0
 14 17  1  0  0  0  0
M  CHG  2  14   1  17  -1
M  END
>  <CdId>
278

>  <Mol Weight>
226.2307

>  <Formula>
C13H10N2O2

>  <Click_ID>
CLK004D09 __  __  __

$$$$
CLK005A06 __  __  __
 OpenBabel03171423152D

 25 27  0  0  0  0  0  0  0  0999 V2000
   -1.5777    0.2433    0.0000 C   0  0  0  0  0  0  0  0  0  0  0  0
   -0.7755    0.2509    0.0000 C   0  0  0  0  0  0  0  0  0  0  0  0
   -2.0567    0.8896    0.0000 N   0  0  0  0  0  0  0  0  0  0  0  0
   -2.0567   -0.4106    0.0000 N   0  0  0  0  0  0  0  0  0  0  0  0
   -0.3725   -0.4600    0.0000 C   0  0  0  0  0  0  0  0  0  0  0  0
   -0.3194    1.0379    0.0000 C   0  0  0  0  0  0  0  0  0  0  0  0
   -2.8285    0.6425    0.0000 C   0  0  0  0  0  0  0  0  0  0  0  0
   -2.8285   -0.1596    0.0000 C   0  0  0  0  0  0  0  0  0  0  0  0
    0.4524   -0.4600    0.0000 C   0  0  0  0  0  0  0  0  0  0  0  0
    0.1444    1.8362    0.0000 N   0  0  0  0  0  0  0  0  0  0  0  0
   -3.5317    1.0531    0.0000 C   0  0  0  0  0  0  0  0  0  0  0  0
   -3.5317   -0.5702    0.0000 C   0  0  0  0  0  0  0  0  0  0  0  0
    0.8668    0.2585    0.0000 C   0  0  0  0  0  0  0  0  0  0  0  0
    0.8668   -1.1747    0.0000 C   0  0  0  0  0  0  0  0  0  0  0  0
   -4.2313    0.6425    0.0000 C   0  0  0  0  0  0  0  0  0  0  0  0
   -4.2313   -0.1596    0.0000 C   0  0  0  0  0  0  0  0  0  0  0  0
    1.6918    0.2509    0.0000 C   0  0  0  0  0  0  0  0  0  0  0  0
    1.6918   -1.1823    0.0000 C   0  0  0  0  0  0  0  0  0  0  0  0
    2.1061   -0.4638    0.0000 C   0  0  0  0  0  0  0  0  0  0  0  0
    2.1176    0.9694    0.0000 O   0  0  0  0  0  0  0  0  0  0  0  0
    2.9350   -0.4638    0.0000 O   0  0  0  0  0  0  0  0  0  0  0  0
    2.9426    0.9694    0.0000 C   0  0  0  0  0  0  0  0  0  0  0  0
    3.3455   -1.1823    0.0000 C   0  0  0  0  0  0  0  0  0  0  0  0
    4.1743   -1.1823    0.0000 C   0  0  0  0  0  0  0  0  0  0  0  0
    4.9993   -1.1823    0.0000 C   0  0  0  0  0  0  0  0  0  0  0  0
  1  2  1  0  0  0  0
  1  3  1  0  0  0  0
  1  4  2  0  0  0  0
  2  5  2  0  0  0  0
  2  6  1  0  0  0  0
  3  7  1  0  0  0  0
  4  8  1  0  0  0  0
  5  9  1  0  0  0  0
  6 10  3  0  0  0  0
  7 11  1  0  0  0  0
  7  8  2  0  0  0  0
  8 12  1  0  0  0  0
  9 13  2  0  0  0  0
  9 14  1  0  0  0  0
 11 15  2  0  0  0  0
 12 16  2  0  0  0  0
 13 17  1  0  0  0  0
 14 18  2  0  0  0  0
 15 16  1  0  0  0  0
 17 19  2  0  0  0  0
 17 20  1  0  0  0  0
 18 19  1  0  0  0  0
 19 21  1  0  0  0  0
 20 22  1  0  0  0  0
 21 23  1  0  0  0  0
 23 24  1  0  0  0  0
 24 25  3  0  0  0  0
M  END
>  <CdId>
325

>  <Mol Weight>
329.352

>  <Formula>
C20H15N3O2

>  <Click_ID>
CLK005A06 __  __  __

$$$$
CLK005C05 __  __  __
 OpenBabel03171423152D

 23 25  0  0  0  0  0  0  0  0999 V2000
   -0.9654    0.8811    0.0000 C   0  0  0  0  0  0  0  0  0  0  0  0
   -0.4253    1.4902    0.0000 C   0  0  0  0  0  0  0  0  0  0  0  0
   -1.7698    0.9538    0.0000 N   0  0  0  0  0  0  0  0  0  0  0  0
   -0.7853    0.0804    0.0000 N   0  0  0  0  0  0  0  0  0  0  0  0
    0.3830    1.3254    0.0000 C   0  0  0  0  0  0  0  0  0  0  0  0
   -0.7163    2.3673    0.0000 C   0  0  0  0  0  0  0  0  0  0  0  0
   -2.0954    0.2031    0.0000 C   0  0  0  0  0  0  0  0  0  0  0  0
   -1.4825   -0.3370    0.0000 C   0  0  0  0  0  0  0  0  0  0  0  0
    0.6474    0.5325    0.0000 C   0  0  0  0  0  0  0  0  0  0  0  0
   -1.0075    3.2561    0.0000 N   0  0  0  0  0  0  0  0  0  0  0  0
   -2.8807   -0.0498    0.0000 C   0  0  0  0  0  0  0  0  0  0  0  0
   -1.6473   -1.1339    0.0000 C   0  0  0  0  0  0  0  0  0  0  0  0
    1.4595    0.3677    0.0000 C   0  0  0  0  0  0  0  0  0  0  0  0
    0.0920   -0.0920    0.0000 C   0  0  0  0  0  0  0  0  0  0  0  0
   -3.0339   -0.8543    0.0000 C   0  0  0  0  0  0  0  0  0  0  0  0
   -2.4287   -1.3982    0.0000 C   0  0  0  0  0  0  0  0  0  0  0  0
    1.7238   -0.4253    0.0000 C   0  0  0  0  0  0  0  0  0  0  0  0
    0.3524   -0.8811    0.0000 C   0  0  0  0  0  0  0  0  0  0  0  0
    1.1722   -1.0496    0.0000 C   0  0  0  0  0  0  0  0  0  0  0  0
    2.5436   -0.5899    0.0000 O   0  0  0  0  0  0  0  0  0  0  0  0
    2.8079   -1.3829    0.0000 C   0  0  0  0  0  0  0  0  0  0  0  0
    3.6162   -1.5476    0.0000 C   0  0  0  0  0  0  0  0  0  0  0  0
    4.4360   -1.7161    0.0000 C   0  0  0  0  0  0  0  0  0  0  0  0
  1  2  1  0  0  0  0
  1  3  1  0  0  0  0
  1  4  2  0  0  0  0
  2  5  2  0  0  0  0
  2  6  1  0  0  0  0
  3  7  1  0  0  0  0
  4  8  1  0  0  0  0
  5  9  1  0  0  0  0
  6 10  3  0  0  0  0
  7 11  1  0  0  0  0
  7  8  2  0  0  0  0
  8 12  1  0  0  0  0
  9 13  2  0  0  0  0
  9 14  1  0  0  0  0
 11 15  2  0  0  0  0
 12 16  2  0  0  0  0
 13 17  1  0  0  0  0
 14 18  2  0  0  0  0
 15 16  1  0  0  0  0
 17 19  2  0  0  0  0
 17 20  1  0  0  0  0
 18 19  1  0  0  0  0
 20 21  1  0  0  0  0
 21 22  1  0  0  0  0
 22 23  3  0  0  0  0
M  END
>  <CdId>
344

>  <Mol Weight>
299.326

>  <Formula>
C19H13N3O

>  <Click_ID>
CLK005C05 __  __  __

$$$$
CLK005C07 __  __  __
 OpenBabel03171423152D

 26 28  0  0  0  0  0  0  0  0999 V2000
   -1.2188    1.0094    0.0000 C   0  0  0  0  0  0  0  0  0  0  0  0
   -0.8227    1.7217    0.0000 C   0  0  0  0  0  0  0  0  0  0  0  0
   -2.0264    0.9066    0.0000 N   0  0  0  0  0  0  0  0  0  0  0  0
   -0.8761    0.2704    0.0000 N   0  0  0  0  0  0  0  0  0  0  0  0
   -0.0190    1.7369    0.0000 C   0  0  0  0  0  0  0  0  0  0  0  0
   -1.3027    2.5101    0.0000 C   0  0  0  0  0  0  0  0  0  0  0  0
   -2.1788    0.1105    0.0000 C   0  0  0  0  0  0  0  0  0  0  0  0
   -1.4665   -0.2819    0.0000 C   0  0  0  0  0  0  0  0  0  0  0  0
    0.4114    1.0208    0.0000 C   0  0  0  0  0  0  0  0  0  0  0  0
   -1.7864    3.2986    0.0000 N   0  0  0  0  0  0  0  0  0  0  0  0
   -2.8758   -0.3085    0.0000 C   0  0  0  0  0  0  0  0  0  0  0  0
   -1.4550   -1.0970    0.0000 C   0  0  0  0  0  0  0  0  0  0  0  0
    1.2380    1.0360    0.0000 C   0  0  0  0  0  0  0  0  0  0  0  0
    0.0076    0.3009    0.0000 C   0  0  0  0  0  0  0  0  0  0  0  0
   -2.8644   -1.1236    0.0000 C   0  0  0  0  0  0  0  0  0  0  0  0
   -2.1598   -1.5084    0.0000 C   0  0  0  0  0  0  0  0  0  0  0  0
    1.6646    0.3276    0.0000 C   0  0  0  0  0  0  0  0  0  0  0  0
    0.4381   -0.4152    0.0000 C   0  0  0  0  0  0  0  0  0  0  0  0
    1.2646   -0.4000    0.0000 C   0  0  0  0  0  0  0  0  0  0  0  0
    2.4949    0.3390    0.0000 O   0  0  0  0  0  0  0  0  0  0  0  0
    1.6950   -1.1084    0.0000 O   0  0  0  0  0  0  0  0  0  0  0  0
    2.9215   -0.3619    0.0000 C   0  0  0  0  0  0  0  0  0  0  0  0
    1.2951   -1.8360    0.0000 C   0  0  0  0  0  0  0  0  0  0  0  0
    3.7520   -0.3504    0.0000 C   0  0  0  0  0  0  0  0  0  0  0  0
    1.7179   -2.5444    0.0000 C   0  0  0  0  0  0  0  0  0  0  0  0
    2.1445   -3.2491    0.0000 C   0  0  0  0  0  0  0  0  0  0  0  0
  1  2  1  0  0  0  0
  1  3  1  0  0  0  0
  1  4  2  0  0  0  0
  2  5  2  0  0  0  0
  2  6  1  0  0  0  0
  3  7  1  0  0  0  0
  4  8  1  0  0  0  0
  5  9  1  0  0  0  0
  6 10  3  0  0  0  0
  7 11  1  0  0  0  0
  7  8  2  0  0  0  0
  8 12  1  0  0  0  0
  9 13  2  0  0  0  0
  9 14  1  0  0  0  0
 11 15  2  0  0  0  0
 12 16  2  0  0  0  0
 13 17  1  0  0  0  0
 14 18  2  0  0  0  0
 15 16  1  0  0  0  0
 17 19  2  0  0  0  0
 17 20  1  0  0  0  0
 18 19  1  0  0  0  0
 19 21  1  0  0  0  0
 20 22  1  0  0  0  0
 21 23  1  0  0  0  0
 22 24  1  0  0  0  0
 23 25  1  0  0  0  0
 25 26  3  0  0  0  0
M  END
>  <CdId>
346

>  <Mol Weight>
343.3786

>  <Formula>
C21H17N3O2

>  <Click_ID>
CLK005C07 __  __  __

$$$$
CLK005E07 __  __  __
 OpenBabel03171423152D

 25 27  0  0  0  0  0  0  0  0999 V2000
   -0.8421    0.7562    0.0000 C   0  0  0  0  0  0  0  0  0  0  0  0
   -0.1203    1.1722    0.0000 C   0  0  0  0  0  0  0  0  0  0  0  0
   -1.6396    1.0071    0.0000 N   0  0  0  0  0  0  0  0  0  0  0  0
   -0.8353   -0.0653    0.0000 N   0  0  0  0  0  0  0  0  0  0  0  0
    0.5912    0.7666    0.0000 C   0  0  0  0  0  0  0  0  0  0  0  0
   -0.1237    2.0006    0.0000 C   0  0  0  0  0  0  0  0  0  0  0  0
   -2.1140    0.3437    0.0000 C   0  0  0  0  0  0  0  0  0  0  0  0
   -1.6190   -0.3300    0.0000 C   0  0  0  0  0  0  0  0  0  0  0  0
    0.5981   -0.0550    0.0000 C   0  0  0  0  0  0  0  0  0  0  0  0
   -0.1341    2.8290    0.0000 N   0  0  0  0  0  0  0  0  0  0  0  0
   -2.9355    0.2578    0.0000 C   0  0  0  0  0  0  0  0  0  0  0  0
   -1.9559   -1.0759    0.0000 C   0  0  0  0  0  0  0  0  0  0  0  0
    1.3097   -0.4640    0.0000 C   0  0  0  0  0  0  0  0  0  0  0  0
   -0.1203   -0.4640    0.0000 C   0  0  0  0  0  0  0  0  0  0  0  0
   -3.2656   -0.5018    0.0000 C   0  0  0  0  0  0  0  0  0  0  0  0
   -2.7774   -1.1722    0.0000 C   0  0  0  0  0  0  0  0  0  0  0  0
    1.3097   -1.2890    0.0000 C   0  0  0  0  0  0  0  0  0  0  0  0
    2.0109   -0.0550    0.0000 O   0  0  0  0  0  0  0  0  0  0  0  0
   -0.1203   -1.2890    0.0000 C   0  0  0  0  0  0  0  0  0  0  0  0
    0.5981   -1.6980    0.0000 C   0  0  0  0  0  0  0  0  0  0  0  0
    2.0212   -1.6947    0.0000 O   0  0  0  0  0  0  0  0  0  0  0  0
    2.0075    0.7666    0.0000 C   0  0  0  0  0  0  0  0  0  0  0  0
    2.0212   -2.5162    0.0000 C   0  0  0  0  0  0  0  0  0  0  0  0
    2.7155    1.1825    0.0000 C   0  0  0  0  0  0  0  0  0  0  0  0
    3.4306    1.5916    0.0000 C   0  0  0  0  0  0  0  0  0  0  0  0
  1  2  1  0  0  0  0
  1  3  1  0  0  0  0
  1  4  2  0  0  0  0
  2  5  2  0  0  0  0
  2  6  1  0  0  0  0
  3  7  1  0  0  0  0
  4  8  1  0  0  0  0
  5  9  1  0  0  0  0
  6 10  3  0  0  0  0
  7 11  1  0  0  0  0
  7  8  2  0  0  0  0
  8 12  1  0  0  0  0
  9 13  2  0  0  0  0
  9 14  1  0  0  0  0
 11 15  2  0  0  0  0
 12 16  2  0  0  0  0
 13 17  1  0  0  0  0
 13 18  1  0  0  0  0
 14 19  2  0  0  0  0
 15 16  1  0  0  0  0
 17 20  2  0  0  0  0
 17 21  1  0  0  0  0
 18 22  1  0  0  0  0
 19 20  1  0  0  0  0
 21 23  1  0  0  0  0
 22 24  1  0  0  0  0
 24 25  3  0  0  0  0
M  END
>  <CdId>
366

>  <Mol Weight>
329.352

>  <Formula>
C20H15N3O2

>  <Click_ID>
CLK005E07 __  __  __

$$$$
CLK005F04 __  __  __
 OpenBabel03171423152D

 16 17  0  0  0  0  0  0  0  0999 V2000
   -0.9794   -0.1033    0.0000 C   0  0  0  0  0  0  0  0  0  0  0  0
   -0.9794    0.7314    0.0000 C   0  0  0  0  0  0  0  0  0  0  0  0
   -0.2645   -0.5145    0.0000 N   0  0  0  0  0  0  0  0  0  0  0  0
   -1.6984   -0.5145    0.0000 C   0  0  0  0  0  0  0  0  0  0  0  0
   -0.2645    1.1385    0.0000 C   0  0  0  0  0  0  0  0  0  0  0  0
   -1.6984    1.1426    0.0000 C   0  0  0  0  0  0  0  0  0  0  0  0
    0.4463   -0.1033    0.0000 C   0  0  0  0  0  0  0  0  0  0  0  0
   -2.4091   -0.1033    0.0000 C   0  0  0  0  0  0  0  0  0  0  0  0
    0.4463    0.7232    0.0000 C   0  0  0  0  0  0  0  0  0  0  0  0
   -2.4091    0.7314    0.0000 C   0  0  0  0  0  0  0  0  0  0  0  0
    1.1653   -0.5227    0.0000 S   0  0  0  0  0  0  0  0  0  0  0  0
    1.1612    1.1385    0.0000 C   0  0  0  0  0  0  0  0  0  0  0  0
    1.1612   -1.3533    0.0000 C   0  0  0  0  0  0  0  0  0  0  0  0
    1.8678    1.5537    0.0000 N   0  0  0  0  0  0  0  0  0  0  0  0
    1.8678   -1.7666    0.0000 C   0  0  0  0  0  0  0  0  0  0  0  0
    2.5806   -2.1819    0.0000 C   0  0  0  0  0  0  0  0  0  0  0  0
  1  2  1  0  0  0  0
  1  3  2  0  0  0  0
  1  4  1  0  0  0  0
  2  5  2  0  0  0  0
  2  6  1  0  0  0  0
  3  7  1  0  0  0  0
  4  8  1  0  0  0  0
  5  9  1  0  0  0  0
  6 10  1  0  0  0  0
  7 11  1  0  0  0  0
  7  9  2  0  0  0  0
  8 10  1  0  0  0  0
  9 12  1  0  0  0  0
 11 13  1  0  0  0  0
 12 14  3  0  0  0  0
 13 15  1  0  0  0  0
 15 16  3  0  0  0  0
M  END
>  <CdId>
373

>  <Mol Weight>
228.313

>  <Formula>
C13H12N2S

>  <Click_ID>
CLK005F04 __  __  __

$$$$
CLK005H02 __  __  __
 OpenBabel03171423152D

 28 30  0  0  0  0  0  0  0  0999 V2000
    1.1469    0.2773    0.0000 C   0  0  0  0  0  0  0  0  0  0  0  0
    0.4279    0.6847    0.0000 C   0  0  3  0  0  0  0  0  0  0  0  0
    1.8624    0.6916    0.0000 C   0  0  0  0  0  0  0  0  0  0  0  0
    1.1469   -0.5409    0.0000 C   0  0  0  0  0  0  0  0  0  0  0  0
   -0.2841    0.2773    0.0000 C   0  0  0  0  0  0  0  0  0  0  0  0
    0.4279    1.5097    0.0000 C   0  0  0  0  0  0  0  0  0  0  0  0
    1.8555    1.5166    0.0000 O   0  0  0  0  0  0  0  0  0  0  0  0
    2.5744    0.2808    0.0000 C   0  0  0  0  0  0  0  0  0  0  0  0
    1.8692   -0.9585    0.0000 C   0  0  0  0  0  0  0  0  0  0  0  0
    0.4347   -0.9654    0.0000 O   0  0  0  0  0  0  0  0  0  0  0  0
   -0.9996    0.6916    0.0000 C   0  0  0  0  0  0  0  0  0  0  0  0
   -0.2841   -0.5409    0.0000 C   0  0  0  0  0  0  0  0  0  0  0  0
    1.1469    1.9274    0.0000 C   0  0  0  0  0  0  0  0  0  0  0  0
   -0.2841    1.9274    0.0000 C   0  0  0  0  0  0  0  0  0  0  0  0
    2.5846   -0.5375    0.0000 C   0  0  0  0  0  0  0  0  0  0  0  0
   -1.7048    0.2808    0.0000 C   0  0  0  0  0  0  0  0  0  0  0  0
   -0.9996   -0.9517    0.0000 C   0  0  0  0  0  0  0  0  0  0  0  0
    1.1469    2.7490    0.0000 N   0  0  0  0  0  0  0  0  0  0  0  0
   -0.9996    2.3382    0.0000 N   0  0  0  0  0  0  0  0  0  0  0  0
    2.5846   -1.3625    0.0000 C   0  0  0  0  0  0  0  0  0  0  0  0
    3.2932   -0.1198    0.0000 C   0  0  0  0  0  0  0  0  0  0  0  0
   -1.7117   -0.5546    0.0000 C   0  0  0  0  0  0  0  0  0  0  0  0
   -2.4134    0.6916    0.0000 Cl  0  0  0  0  0  0  0  0  0  0  0  0
   -0.9996   -1.7699    0.0000 Cl  0  0  0  0  0  0  0  0  0  0  0  0
   -2.4271   -0.9654    0.0000 O   0  0  0  0  0  0  0  0  0  0  0  0
   -2.4271   -1.7802    0.0000 C   0  0  0  0  0  0  0  0  0  0  0  0
   -3.1324   -2.1943    0.0000 C   0  0  0  0  0  0  0  0  0  0  0  0
   -3.8411   -2.6018    0.0000 C   0  0  0  0  0  0  0  0  0  0  0  0
  1  2  1  0  0  0  0
  1  3  2  0  0  0  0
  1  4  1  0  0  0  0
  2  5  1  0  0  0  0
  2  6  1  0  0  0  0
  3  7  1  0  0  0  0
  3  8  1  0  0  0  0
  4  9  1  0  0  0  0
  4 10  2  0  0  0  0
  5 11  2  0  0  0  0
  5 12  1  0  0  0  0
  6 13  2  0  0  0  0
  6 14  1  0  0  0  0
  7 13  1  0  0  0  0
  8 15  1  0  0  0  0
  9 15  1  0  0  0  0
 11 16  1  0  0  0  0
 12 17  2  0  0  0  0
 13 18  1  0  0  0  0
 14 19  3  0  0  0  0
 15 20  1  0  0  0  0
 15 21  1  0  0  0  0
 16 22  2  0  0  0  0
 16 23  1  0  0  0  0
 17 24  1  0  0  0  0
 17 22  1  0  0  0  0
 22 25  1  0  0  0  0
 25 26  1  0  0  0  0
 26 27  1  0  0  0  0
 27 28  3  0  0  0  0
M  END
>  <CdId>
391

>  <Mol Weight>
417.285

>  <Formula>
C21H18Cl2N2O3

>  <Click_ID>
CLK005H02 __  __  __

$$$$
CLK006E10 __  __  __
 OpenBabel03171423152D

 23 24  0  0  0  0  0  0  0  0999 V2000
   -1.3361   -1.4718    0.0000 N   0  0  0  0  0  0  0  0  0  0  0  0
   -0.6681   -0.9882    0.0000 C   0  0  0  0  0  0  0  0  0  0  0  0
   -1.0856   -2.2651    0.0000 C   0  0  0  0  0  0  0  0  0  0  0  0
   -2.1294   -1.2178    0.0000 C   0  0  0  0  0  0  0  0  0  0  0  0
    0.0034   -1.4718    0.0000 C   0  0  0  0  0  0  0  0  0  0  0  0
   -0.6681   -0.1531    0.0000 O   0  0  0  0  0  0  0  0  0  0  0  0
   -0.2540   -2.2651    0.0000 N   0  0  0  0  0  0  0  0  0  0  0  0
   -1.5727   -2.9402    0.0000 O   0  0  0  0  0  0  0  0  0  0  0  0
   -2.3035   -0.4071    0.0000 C   0  0  0  0  0  0  0  0  0  0  0  0
    0.7968   -1.2178    0.0000 C   0  0  0  0  0  0  0  0  0  0  0  0
   -1.6875    0.1496    0.0000 O   0  0  0  0  0  0  0  0  0  0  0  0
   -3.1002   -0.1461    0.0000 O   0  0  0  0  0  0  0  0  0  0  0  0
    0.9742   -0.4175    0.0000 C   0  0  0  0  0  0  0  0  0  0  0  0
   -1.8615    0.9638    0.0000 C   0  0  0  0  0  0  0  0  0  0  0  0
    1.7536   -0.1670    0.0000 C   0  0  0  0  0  0  0  0  0  0  0  0
    0.3654    0.1427    0.0000 C   0  0  0  0  0  0  0  0  0  0  0  0
    1.9415    0.6472    0.0000 C   0  0  0  0  0  0  0  0  0  0  0  0
    0.5463    0.9430    0.0000 C   0  0  0  0  0  0  0  0  0  0  0  0
    1.3291    1.1865    0.0000 C   0  0  0  0  0  0  0  0  0  0  0  0
    1.5136    1.9833    0.0000 O   0  0  0  0  0  0  0  0  0  0  0  0
    2.2999    2.2338    0.0000 C   0  0  0  0  0  0  0  0  0  0  0  0
    2.4844    3.0376    0.0000 C   0  0  0  0  0  0  0  0  0  0  0  0
    2.6653    3.8344    0.0000 C   0  0  0  0  0  0  0  0  0  0  0  0
  1  2  1  0  0  0  0
  1  3  1  0  0  0  0
  1  4  1  0  0  0  0
  2  5  1  0  0  0  0
  2  6  2  0  0  0  0
  3  7  1  0  0  0  0
  3  8  2  0  0  0  0
  4  9  1  0  0  0  0
  5 10  2  0  0  0  0
  5  7  1  0  0  0  0
  9 11  1  0  0  0  0
  9 12  2  0  0  0  0
 10 13  1  0  0  0  0
 11 14  1  0  0  0  0
 13 15  1  0  0  0  0
 13 16  2  0  0  0  0
 15 17  2  0  0  0  0
 16 18  1  0  0  0  0
 17 19  1  0  0  0  0
 18 19  2  0  0  0  0
 19 20  1  0  0  0  0
 20 21  1  0  0  0  0
 21 22  1  0  0  0  0
 22 23  3  0  0  0  0
M  END
>  <CdId>
449

>  <Mol Weight>
314.2928

>  <Formula>
C16H14N2O5

>  <Click_ID>
CLK006E10 __  __  __

$$$$
CLK006G02 __  __  __
 OpenBabel03171423152D

 32 35  0  0  0  0  0  0  0  0999 V2000
   -0.2176   -1.1986    0.0000 C   0  0  0  0  0  0  0  0  0  0  0  0
   -0.3558   -0.4110    0.0000 C   0  0  0  0  0  0  0  0  0  0  0  0
   -0.9325   -1.5750    0.0000 N   0  0  0  0  0  0  0  0  0  0  0  0
    0.5319   -1.5888    0.0000 N   0  0  0  0  0  0  0  0  0  0  0  0
    0.1312    0.0760    0.0000 C   0  0  3  0  0  0  0  0  0  0  0  0
   -1.1536   -0.2971    0.0000 C   0  0  0  0  0  0  0  0  0  0  0  0
   -1.0534   -2.3901    0.0000 C   0  0  0  0  0  0  0  0  0  0  0  0
   -1.5024   -1.0258    0.0000 N   0  0  0  0  0  0  0  0  0  0  0  0
    1.3090   -1.2261    0.0000 C   0  0  0  0  0  0  0  0  0  0  0  0
    0.1312    0.9049    0.0000 C   0  0  0  0  0  0  0  0  0  0  0  0
    0.9602    0.0898    0.0000 S   0  0  0  0  0  0  0  0  0  0  0  0
   -1.8720    0.1140    0.0000 C   0  0  0  0  0  0  0  0  0  0  0  0
   -1.8202   -2.6941    0.0000 C   0  0  0  0  0  0  0  0  0  0  0  0
   -0.4041   -2.8944    0.0000 C   0  0  0  0  0  0  0  0  0  0  0  0
    1.4507   -0.4248    0.0000 C   0  0  3  0  0  0  0  0  0  0  0  0
    1.9618   -1.7269    0.0000 O   0  0  0  0  0  0  0  0  0  0  0  0
    0.8462    1.3298    0.0000 C   0  0  0  0  0  0  0  0  0  0  0  0
   -0.5907    1.3159    0.0000 C   0  0  0  0  0  0  0  0  0  0  0  0
   -1.9411   -3.5091    0.0000 C   0  0  0  0  0  0  0  0  0  0  0  0
   -0.5180   -3.7163    0.0000 C   0  0  0  0  0  0  0  0  0  0  0  0
    2.2415   -0.1900    0.0000 C   0  0  0  0  0  0  0  0  0  0  0  0
    0.8393    2.1552    0.0000 C   0  0  0  0  0  0  0  0  0  0  0  0
   -0.5941    2.1449    0.0000 C   0  0  0  0  0  0  0  0  0  0  0  0
   -1.2918   -4.0203    0.0000 C   0  0  0  0  0  0  0  0  0  0  0  0
   -2.7044   -3.8165    0.0000 C   0  0  0  0  0  0  0  0  0  0  0  0
    0.1209    2.5559    0.0000 C   0  0  0  0  0  0  0  0  0  0  0  0
    1.5508    2.5697    0.0000 O   0  0  0  0  0  0  0  0  0  0  0  0
    0.1209    3.3814    0.0000 O   0  0  0  0  0  0  0  0  0  0  0  0
    2.2727    2.1552    0.0000 C   0  0  0  0  0  0  0  0  0  0  0  0
    0.8324    3.8096    0.0000 C   0  0  0  0  0  0  0  0  0  0  0  0
    0.8220    4.6351    0.0000 C   0  0  0  0  0  0  0  0  0  0  0  0
    0.8220    5.4606    0.0000 C   0  0  0  0  0  0  0  0  0  0  0  0
  1  2  2  0  0  0  0
  1  3  1  0  0  0  0
  1  4  1  0  0  0  0
  2  5  1  0  0  0  0
  2  6  1  0  0  0  0
  3  7  1  0  0  0  0
  3  8  1  0  0  0  0
  4  9  1  0  0  0  0
  5 10  1  0  0  0  0
  5 11  1  0  0  0  0
  6 12  1  0  0  0  0
  6  8  2  0  0  0  0
  7 13  2  0  0  0  0
  7 14  1  0  0  0  0
  9 15  1  0  0  0  0
  9 16  2  0  0  0  0
 10 17  2  0  0  0  0
 10 18  1  0  0  0  0
 11 15  1  0  0  0  0
 13 19  1  0  0  0  0
 14 20  2  0  0  0  0
 15 21  1  0  0  0  0
 17 22  1  0  0  0  0
 18 23  2  0  0  0  0
 19 24  2  0  0  0  0
 19 25  1  0  0  0  0
 20 24  1  0  0  0  0
 22 26  2  0  0  0  0
 22 27  1  0  0  0  0
 23 26  1  0  0  0  0
 26 28  1  0  0  0  0
 27 29  1  0  0  0  0
 28 30  1  0  0  0  0
 30 31  1  0  0  0  0
 31 32  3  0  0  0  0
M  END
>  <CdId>
461

>  <Mol Weight>
447.549

>  <Formula>
C25H25N3O3S

>  <Click_ID>
CLK006G02 __  __  __

$$$$
CLK007A08 __  __  __
 OpenBabel03171423152D

 24 26  0  0  0  0  0  0  0  0999 V2000
    0.8319   -0.1381    0.0000 C   0  0  3  0  0  0  0  0  0  0  0  0
    0.1208   -0.5523    0.0000 C   0  0  0  0  0  0  0  0  0  0  0  0
    0.8319    0.6869    0.0000 C   0  0  0  0  0  0  0  0  0  0  0  0
    1.5465   -0.5420    0.0000 C   0  0  0  0  0  0  0  0  0  0  0  0
    0.1208   -1.3705    0.0000 C   0  0  0  0  0  0  0  0  0  0  0  0
   -0.5937   -0.1311    0.0000 C   0  0  0  0  0  0  0  0  0  0  0  0
    1.5465    1.0943    0.0000 C   0  0  0  0  0  0  0  0  0  0  0  0
    0.1208    1.0943    0.0000 C   0  0  0  0  0  0  0  0  0  0  0  0
    1.5465   -1.3705    0.0000 C   0  0  0  0  0  0  0  0  0  0  0  0
   -0.5937   -1.7812    0.0000 N   0  0  0  0  0  0  0  0  0  0  0  0
    0.8319   -1.7812    0.0000 N   0  0  0  0  0  0  0  0  0  0  0  0
   -1.2980   -0.5523    0.0000 N   0  0  0  0  0  0  0  0  0  0  0  0
   -0.5937    0.6939    0.0000 O   0  0  0  0  0  0  0  0  0  0  0  0
    1.5465    1.9228    0.0000 C   0  0  0  0  0  0  0  0  0  0  0  0
    0.1070    1.9124    0.0000 C   0  0  0  0  0  0  0  0  0  0  0  0
    2.2577   -1.7812    0.0000 O   0  0  0  0  0  0  0  0  0  0  0  0
   -1.2980   -1.3774    0.0000 C   0  0  0  0  0  0  0  0  0  0  0  0
    0.8285    2.3335    0.0000 C   0  0  0  0  0  0  0  0  0  0  0  0
    2.2577    2.3370    0.0000 Cl  0  0  0  0  0  0  0  0  0  0  0  0
   -2.0194   -1.7917    0.0000 S   0  0  0  0  0  0  0  0  0  0  0  0
    0.8216    3.1620    0.0000 Cl  0  0  0  0  0  0  0  0  0  0  0  0
   -2.7340   -1.3774    0.0000 C   0  0  0  0  0  0  0  0  0  0  0  0
   -2.7340   -0.5523    0.0000 C   0  0  0  0  0  0  0  0  0  0  0  0
   -3.4486   -0.1381    0.0000 C   0  0  0  0  0  0  0  0  0  0  0  0
  1  2  1  0  0  0  0
  1  3  1  0  0  0  0
  1  4  1  0  0  0  0
  2  5  2  0  0  0  0
  2  6  1  0  0  0  0
  3  7  2  0  0  0  0
  3  8  1  0  0  0  0
  4  9  1  0  0  0  0
  5 10  1  0  0  0  0
  5 11  1  0  0  0  0
  6 12  1  0  0  0  0
  6 13  2  0  0  0  0
  7 14  1  0  0  0  0
  8 15  2  0  0  0  0
  9 16  2  0  0  0  0
  9 11  1  0  0  0  0
 10 17  2  0  0  0  0
 12 17  1  0  0  0  0
 14 18  2  0  0  0  0
 14 19  1  0  0  0  0
 15 18  1  0  0  0  0
 17 20  1  0  0  0  0
 18 21  1  0  0  0  0
 20 22  1  0  0  0  0
 22 23  1  0  0  0  0
 23 24  3  0  0  0  0
M  END
>  <CdId>
487

>  <Mol Weight>
380.248

>  <Formula>
C16H11Cl2N3O2S

>  <Click_ID>
CLK007A08 __  __  __

$$$$
CLK007C04 __  __  __
 OpenBabel03171423152D

 26 28  0  0  0  0  0  0  0  0999 V2000
    0.7940   -0.4384    0.0000 C   0  0  3  0  0  0  0  0  0  0  0  0
    0.0794   -0.8492    0.0000 C   0  0  0  0  0  0  0  0  0  0  0  0
    0.7940    0.3866    0.0000 C   0  0  0  0  0  0  0  0  0  0  0  0
    1.5085   -0.8423    0.0000 C   0  0  0  0  0  0  0  0  0  0  0  0
    0.0794   -1.6673    0.0000 C   0  0  0  0  0  0  0  0  0  0  0  0
   -0.6317   -0.4281    0.0000 C   0  0  0  0  0  0  0  0  0  0  0  0
    1.5085    0.8009    0.0000 C   0  0  0  0  0  0  0  0  0  0  0  0
    0.0794    0.7975    0.0000 C   0  0  0  0  0  0  0  0  0  0  0  0
    1.5085   -1.6673    0.0000 C   0  0  0  0  0  0  0  0  0  0  0  0
   -0.6317   -2.0816    0.0000 N   0  0  0  0  0  0  0  0  0  0  0  0
    0.7940   -2.0816    0.0000 N   0  0  0  0  0  0  0  0  0  0  0  0
   -1.3360   -0.8492    0.0000 N   0  0  0  0  0  0  0  0  0  0  0  0
   -0.6317    0.3970    0.0000 O   0  0  0  0  0  0  0  0  0  0  0  0
    1.5016    1.6259    0.0000 C   0  0  0  0  0  0  0  0  0  0  0  0
    0.0691    1.6156    0.0000 C   0  0  0  0  0  0  0  0  0  0  0  0
    2.2196   -2.0816    0.0000 O   0  0  0  0  0  0  0  0  0  0  0  0
   -1.3360   -1.6777    0.0000 C   0  0  0  0  0  0  0  0  0  0  0  0
    0.7906    2.0367    0.0000 C   0  0  0  0  0  0  0  0  0  0  0  0
   -2.0574   -2.0885    0.0000 S   0  0  0  0  0  0  0  0  0  0  0  0
    0.7802    2.8617    0.0000 C   0  0  0  0  0  0  0  0  0  0  0  0
   -2.7720   -1.6777    0.0000 C   0  0  0  0  0  0  0  0  0  0  0  0
    1.5016    3.2760    0.0000 F   0  0  0  0  0  0  0  0  0  0  0  0
    0.0691    3.2760    0.0000 F   0  0  0  0  0  0  0  0  0  0  0  0
    1.5810    2.6477    0.0000 F   0  0  0  0  0  0  0  0  0  0  0  0
   -2.7720   -0.8492    0.0000 C   0  0  0  0  0  0  0  0  0  0  0  0
   -3.4866   -0.4384    0.0000 C   0  0  0  0  0  0  0  0  0  0  0  0
  1  2  1  0  0  0  0
  1  3  1  0  0  0  0
  1  4  1  0  0  0  0
  2  5  2  0  0  0  0
  2  6  1  0  0  0  0
  3  7  2  0  0  0  0
  3  8  1  0  0  0  0
  4  9  1  0  0  0  0
  5 10  1  0  0  0  0
  5 11  1  0  0  0  0
  6 12  1  0  0  0  0
  6 13  2  0  0  0  0
  7 14  1  0  0  0  0
  8 15  2  0  0  0  0
  9 16  2  0  0  0  0
  9 11  1  0  0  0  0
 10 17  2  0  0  0  0
 12 17  1  0  0  0  0
 14 18  2  0  0  0  0
 15 18  1  0  0  0  0
 17 19  1  0  0  0  0
 18 20  1  0  0  0  0
 19 21  1  0  0  0  0
 20 22  1  0  0  0  0
 20 23  1  0  0  0  0
 20 24  1  0  0  0  0
 21 25  1  0  0  0  0
 25 26  3  0  0  0  0
M  END
>  <CdId>
503

>  <Mol Weight>
379.356

>  <Formula>
C17H12F3N3O2S

>  <Click_ID>
CLK007C04 __  __  __

$$$$
CLK007E10 __  __  __
 OpenBabel03171423152D

 26 28  0  0  0  0  0  0  0  0999 V2000
    0.0034   -0.9562    0.0000 C   0  0  0  0  0  0  0  0  0  0  0  0
    0.7145   -0.5420    0.0000 C   0  0  3  0  0  0  0  0  0  0  0  0
    0.0034   -1.7708    0.0000 C   0  0  0  0  0  0  0  0  0  0  0  0
   -0.7110   -0.5350    0.0000 C   0  0  0  0  0  0  0  0  0  0  0  0
    0.7145    0.2831    0.0000 C   0  0  0  0  0  0  0  0  0  0  0  0
    1.4291   -0.9458    0.0000 C   0  0  0  0  0  0  0  0  0  0  0  0
   -0.7110   -2.1850    0.0000 N   0  0  0  0  0  0  0  0  0  0  0  0
    0.7145   -2.1850    0.0000 N   0  0  0  0  0  0  0  0  0  0  0  0
   -1.4153   -0.9562    0.0000 N   0  0  0  0  0  0  0  0  0  0  0  0
   -0.7110    0.2934    0.0000 O   0  0  0  0  0  0  0  0  0  0  0  0
    1.4291    0.6973    0.0000 C   0  0  0  0  0  0  0  0  0  0  0  0
    0.0034    0.6938    0.0000 C   0  0  0  0  0  0  0  0  0  0  0  0
    1.4291   -1.7708    0.0000 C   0  0  0  0  0  0  0  0  0  0  0  0
   -1.4153   -1.7811    0.0000 C   0  0  0  0  0  0  0  0  0  0  0  0
    1.4256    1.5223    0.0000 C   0  0  0  0  0  0  0  0  0  0  0  0
   -0.0103    1.5119    0.0000 C   0  0  0  0  0  0  0  0  0  0  0  0
    2.1401   -2.1850    0.0000 O   0  0  0  0  0  0  0  0  0  0  0  0
   -2.1367   -2.1919    0.0000 S   0  0  0  0  0  0  0  0  0  0  0  0
    0.7110    1.9330    0.0000 C   0  0  0  0  0  0  0  0  0  0  0  0
   -2.8512   -1.7811    0.0000 C   0  0  0  0  0  0  0  0  0  0  0  0
    0.7041    2.7580    0.0000 O   0  0  0  0  0  0  0  0  0  0  0  0
   -2.8512   -0.9562    0.0000 C   0  0  0  0  0  0  0  0  0  0  0  0
    1.4256    3.1688    0.0000 C   0  0  0  0  0  0  0  0  0  0  0  0
   -3.5658   -0.5420    0.0000 C   0  0  0  0  0  0  0  0  0  0  0  0
    1.4153    4.0007    0.0000 C   0  0  0  0  0  0  0  0  0  0  0  0
    2.1298    4.4217    0.0000 C   0  0  0  0  0  0  0  0  0  0  0  0
  1  2  1  0  0  0  0
  1  3  2  0  0  0  0
  1  4  1  0  0  0  0
  2  5  1  0  0  0  0
  2  6  1  0  0  0  0
  3  7  1  0  0  0  0
  3  8  1  0  0  0  0
  4  9  1  0  0  0  0
  4 10  2  0  0  0  0
  5 11  2  0  0  0  0
  5 12  1  0  0  0  0
  6 13  1  0  0  0  0
  7 14  2  0  0  0  0
  8 13  1  0  0  0  0
  9 14  1  0  0  0  0
 11 15  1  0  0  0  0
 12 16  2  0  0  0  0
 13 17  2  0  0  0  0
 14 18  1  0  0  0  0
 15 19  2  0  0  0  0
 16 19  1  0  0  0  0
 18 20  1  0  0  0  0
 19 21  1  0  0  0  0
 20 22  1  0  0  0  0
 21 23  1  0  0  0  0
 22 24  3  0  0  0  0
 23 25  1  0  0  0  0
 25 26  2  0  0  0  0
M  END
>  <CdId>
529

>  <Mol Weight>
367.422

>  <Formula>
C19H17N3O3S

>  <Click_ID>
CLK007E10 __  __  __

$$$$
CLK008C05 __  __  __
 OpenBabel03171423152D

 24 26  0  0  0  0  0  0  0  0999 V2000
   -1.8120   -0.5484    0.0000 C   0  0  0  0  0  0  0  0  0  0  0  0
   -1.4040    0.1711    0.0000 C   0  0  0  0  0  0  0  0  0  0  0  0
   -1.4040   -1.2505    0.0000 C   0  0  0  0  0  0  0  0  0  0  0  0
   -2.6545   -0.5484    0.0000 C   0  0  0  0  0  0  0  0  0  0  0  0
   -0.5923    0.1711    0.0000 C   0  0  0  0  0  0  0  0  0  0  0  0
   -1.8428    0.9126    0.0000 C   0  0  0  0  0  0  0  0  0  0  0  0
   -0.5923   -1.2505    0.0000 C   0  0  0  0  0  0  0  0  0  0  0  0
   -1.8120   -1.9656    0.0000 C   0  0  0  0  0  0  0  0  0  0  0  0
   -3.0581    0.1711    0.0000 C   0  0  0  0  0  0  0  0  0  0  0  0
   -3.0581   -1.2505    0.0000 C   0  0  0  0  0  0  0  0  0  0  0  0
   -0.1887   -0.5484    0.0000 N   0  0  0  0  0  0  0  0  0  0  0  0
   -0.1579    0.9126    0.0000 O   0  0  0  0  0  0  0  0  0  0  0  0
   -2.6545    0.9126    0.0000 C   0  0  0  0  0  0  0  0  0  0  0  0
   -0.1579   -1.9919    0.0000 O   0  0  0  0  0  0  0  0  0  0  0  0
   -2.6281   -1.9656    0.0000 C   0  0  0  0  0  0  0  0  0  0  0  0
    0.6538   -0.5484    0.0000 C   0  0  0  0  0  0  0  0  0  0  0  0
    1.0618    0.1711    0.0000 C   0  0  0  0  0  0  0  0  0  0  0  0
    1.9043    0.1711    0.0000 C   0  0  0  0  0  0  0  0  0  0  0  0
    2.3079    0.9126    0.0000 C   0  0  0  0  0  0  0  0  0  0  0  0
    3.1195    0.9126    0.0000 O   0  0  0  0  0  0  0  0  0  0  0  0
    1.8779    1.6147    0.0000 O   0  0  0  0  0  0  0  0  0  0  0  0
    3.5320    1.6147    0.0000 C   0  0  0  0  0  0  0  0  0  0  0  0
    4.3437    1.6147    0.0000 C   0  0  0  0  0  0  0  0  0  0  0  0
    5.1861    1.6147    0.0000 C   0  0  0  0  0  0  0  0  0  0  0  0
  1  2  1  0  0  0  0
  1  3  1  0  0  0  0
  1  4  2  0  0  0  0
  2  5  1  0  0  0  0
  2  6  2  0  0  0  0
  3  7  1  0  0  0  0
  3  8  2  0  0  0  0
  4  9  1  0  0  0  0
  4 10  1  0  0  0  0
  5 11  1  0  0  0  0
  5 12  2  0  0  0  0
  6 13  1  0  0  0  0
  7 14  2  0  0  0  0
  7 11  1  0  0  0  0
  8 15  1  0  0  0  0
  9 13  2  0  0  0  0
 10 15  2  0  0  0  0
 11 16  1  0  0  0  0
 16 17  1  0  0  0  0
 17 18  1  0  0  0  0
 18 19  1  0  0  0  0
 19 20  1  0  0  0  0
 19 21  2  0  0  0  0
 20 22  1  0  0  0  0
 22 23  1  0  0  0  0
 23 24  3  0  0  0  0
M  END
>  <CdId>
574

>  <Mol Weight>
321.3267

>  <Formula>
C19H15NO4

>  <Click_ID>
CLK008C05 __  __  __

$$$$
CLK009A05 __  __  __
 OpenBabel03171423152D

 22 22  0  0  0  0  0  0  0  0999 V2000
   -3.5470    1.2026    0.0000 C   0  0  0  0  0  0  0  0  0  0  0  0
    3.5964   -1.2899    0.0000 C   0  0  0  0  0  0  0  0  0  0  0  0
    4.3247   -1.7110    0.0000 C   0  0  0  0  0  0  0  0  0  0  0  0
   -3.5470    0.3831    0.0000 C   0  0  0  0  0  0  0  0  0  0  0  0
   -1.3771   -0.8688    0.0000 C   0  0  0  0  0  0  0  0  0  0  0  0
   -2.1055   -1.2899    0.0000 N   0  0  0  0  0  0  0  0  0  0  0  0
    1.4606   -0.8688    0.0000 C   0  0  0  0  0  0  0  0  0  0  0  0
   -2.8338   -0.0266    0.0000 C   0  0  0  0  0  0  0  0  0  0  0  0
   -2.8338   -0.8688    0.0000 C   0  0  0  0  0  0  0  0  0  0  0  0
   -4.2526    1.6236    0.0000 O   0  0  0  0  0  0  0  0  0  0  0  0
   -1.3771   -0.0266    0.0000 O   0  0  0  0  0  0  0  0  0  0  0  0
    1.4606   -0.0266    0.0000 O   0  0  0  0  0  0  0  0  0  0  0  0
   -2.8338    1.6236    0.0000 O   0  0  0  0  0  0  0  0  0  0  0  0
    2.1662   -1.2899    0.0000 O   0  0  0  0  0  0  0  0  0  0  0  0
    2.8832   -0.8688    0.0000 C   0  0  0  0  0  0  0  0  0  0  0  0
   -0.6676   -1.2899    0.0000 C   0  0  0  0  0  0  0  0  0  0  0  0
    0.7550   -1.2899    0.0000 C   0  0  0  0  0  0  0  0  0  0  0  0
    0.0455   -0.8688    0.0000 C   0  0  0  0  0  0  0  0  0  0  0  0
   -4.2526   -0.0266    0.0000 C   0  0  0  0  0  0  0  0  0  0  0  0
   -4.2526   -0.8688    0.0000 C   0  0  0  0  0  0  0  0  0  0  0  0
   -3.5470   -1.2747    0.0000 C   0  0  0  0  0  0  0  0  0  0  0  0
   -2.1244    1.2026    0.0000 C   0  0  0  0  0  0  0  0  0  0  0  0
  2 15  1  0  0  0  0
  3  2  3  0  0  0  0
  4  1  1  0  0  0  0
  5  6  1  0  0  0  0
  6  9  1  0  0  0  0
  7 17  1  0  0  0  0
  8  4  1  0  0  0  0
  9  8  2  0  0  0  0
  9 21  1  0  0  0  0
 10  1  2  0  0  0  0
 11  5  2  0  0  0  0
 12  7  2  0  0  0  0
 13  1  1  0  0  0  0
 14  7  1  0  0  0  0
 15 14  1  0  0  0  0
 16  5  1  0  0  0  0
 17 18  1  0  0  0  0
 18 16  1  0  0  0  0
 19  4  2  0  0  0  0
 20 19  1  0  0  0  0
 21 20  2  0  0  0  0
 22 13  1  0  0  0  0
M  END
>  <CdId>
600

>  <Mol Weight>
303.3099

>  <Formula>
C16H17NO5

>  <Click_ID>
CLK009A05 __  __  __

$$$$
CLK009B08 __  __  __
 OpenBabel03171423152D

 15 13  0  0  0  0  0  0  0  0999 V2000
    1.1603    1.2489    0.0000 Cl  0  0  0  0  0  0  0  0  0  0  0  0
    2.1624    0.1118    0.0000 C   0  0  0  0  0  0  0  0  0  0  0  0
    2.8678    0.5396    0.0000 C   0  0  0  0  0  0  0  0  0  0  0  0
   -1.4300    0.5049    0.0000 C   0  0  0  0  0  0  0  0  0  0  0  0
   -0.7054    0.9251    0.0000 C   0  0  0  0  0  0  0  0  0  0  0  0
    1.4378   -0.3122    0.0000 C   0  0  0  0  0  0  0  0  0  0  0  0
   -0.7054    1.7422    0.0000 O   0  0  0  0  0  0  0  0  0  0  0  0
   -1.4300   -0.3122    0.0000 C   0  0  0  0  0  0  0  0  0  0  0  0
    0.7401   -0.7208    0.0000 N   0  0  0  0  0  0  0  0  0  0  0  0
    0.0154    0.5204    0.0000 C   0  0  0  0  0  0  0  0  0  0  0  0
    0.0154   -0.3122    0.0000 C   0  0  0  0  0  0  0  0  0  0  0  0
   -2.1277    0.9096    0.0000 C   0  0  0  0  0  0  0  0  0  0  0  0
    1.0331    0.4124    0.0000 C   0  0  0  0  0  0  0  0  0  0  0  0
    1.8656   -1.0176    0.0000 C   0  0  0  0  0  0  0  0  0  0  0  0
   -2.1277   -0.7208    0.0000 C   0  0  0  0  0  0  0  0  0  0  0  0
  3  2  3  0  0  0  0
  4  5  1  0  0  0  0
  5 10  1  0  0  0  0
  6  2  1  0  0  0  0
  7  5  2  0  0  0  0
  8  4  2  0  0  0  0
  9  6  1  0  0  0  0
 10 11  1  0  0  0  0
 11  9  1  0  0  0  0
 12  4  1  0  0  0  0
 13  6  1  0  0  0  0
 14  6  1  0  0  0  0
 15  8  1  0  0  0  0
M  END
>  <CdId>
613

>  <Mol Weight>
229.746

>  <Formula>
C12H20ClNO

>  <Click_ID>
CLK009B08 __  __  __

$$$$
CLK009D05 __  __  __
 OpenBabel03171423152D

 26 27  0  0  0  0  0  0  0  0999 V2000
   -1.6648    3.4709    0.0000 C   0  0  0  0  0  0  0  0  0  0  0  0
   -1.2709    2.7574    0.0000 C   0  0  0  0  0  0  0  0  0  0  0  0
   -0.4162    2.7574    0.0000 C   0  0  0  0  0  0  0  0  0  0  0  0
    0.0075    3.4709    0.0000 C   0  0  0  0  0  0  0  0  0  0  0  0
   -2.5196    3.4709    0.0000 N   0  0  0  0  0  0  0  0  0  0  0  0
   -4.1919    0.6168    0.0000 C   0  0  0  0  0  0  0  0  0  0  0  0
    2.0811    2.7574    0.0000 C   0  0  0  0  0  0  0  0  0  0  0  0
    2.9432    2.7574    0.0000 C   0  0  0  0  0  0  0  0  0  0  0  0
   -3.7682    1.3303    0.0000 C   0  0  0  0  0  0  0  0  0  0  0  0
   -1.2412    4.1844    0.0000 O   0  0  0  0  0  0  0  0  0  0  0  0
   -0.3791    4.1844    0.0000 O   0  0  0  0  0  0  0  0  0  0  0  0
   -3.8053   -0.0967    0.0000 O   0  0  0  0  0  0  0  0  0  0  0  0
   -2.9135    2.7574    0.0000 C   0  0  0  0  0  0  0  0  0  0  0  0
   -4.1621    2.0439    0.0000 C   0  0  0  0  0  0  0  0  0  0  0  0
   -2.9135    1.3303    0.0000 C   0  0  0  0  0  0  0  0  0  0  0  0
    0.8325    3.4709    0.0000 O   0  0  0  0  0  0  0  0  0  0  0  0
   -5.0169    0.6466    0.0000 O   0  0  0  0  0  0  0  0  0  0  0  0
   -2.5196    2.0439    0.0000 C   0  0  0  0  0  0  0  0  0  0  0  0
   -3.7682    2.7574    0.0000 C   0  0  0  0  0  0  0  0  0  0  0  0
    1.2561    2.7574    0.0000 C   0  0  0  0  0  0  0  0  0  0  0  0
   -1.6648    2.0439    0.0000 C   0  0  0  0  0  0  0  0  0  0  0  0
   -0.0223    2.0439    0.0000 C   0  0  0  0  0  0  0  0  0  0  0  0
   -5.4108   -0.0967    0.0000 C   0  0  0  0  0  0  0  0  0  0  0  0
   -1.2709    1.3303    0.0000 C   0  0  0  0  0  0  0  0  0  0  0  0
   -0.4162    1.3303    0.0000 C   0  0  0  0  0  0  0  0  0  0  0  0
   -6.2655   -0.0967    0.0000 C   0  0  0  0  0  0  0  0  0  0  0  0
  2  1  1  0  0  0  0
  3  2  1  0  0  0  0
  4  3  1  0  0  0  0
  5  1  1  0  0  0  0
  6  9  1  0  0  0  0
  7 20  1  0  0  0  0
  8  7  3  0  0  0  0
  9 14  1  0  0  0  0
  9 15  2  0  0  0  0
 10  1  2  0  0  0  0
 11  4  2  0  0  0  0
 12  6  2  0  0  0  0
 13  5  1  0  0  0  0
 14 19  2  0  0  0  0
 15 18  1  0  0  0  0
 16  4  1  0  0  0  0
 17  6  1  0  0  0  0
 18 13  2  0  0  0  0
 19 13  1  0  0  0  0
 20 16  1  0  0  0  0
 21  2  2  0  0  0  0
 22  3  2  0  0  0  0
 22 25  1  0  0  0  0
 23 17  1  0  0  0  0
 24 21  1  0  0  0  0
 25 24  2  0  0  0  0
 26 23  1  0  0  0  0
M  END
>  <CdId>
630

>  <Mol Weight>
351.3527

>  <Formula>
C20H17NO5

>  <Click_ID>
CLK009D05 __  __  __

$$$$
CLK010A11 __  __  __
 OpenBabel03171423152D

 29 32  0  0  0  0  0  0  0  0999 V2000
    2.4927   -0.6764    0.0000 N   0  0  0  0  0  0  0  0  0  0  0  0
    3.1983   -1.9081    0.0000 C   0  0  0  0  0  0  0  0  0  0  0  0
    3.1983   -0.2547    0.0000 C   0  0  0  0  0  0  0  0  0  0  0  0
    2.4927   -1.5031    0.0000 C   0  0  0  0  0  0  0  0  0  0  0  0
    3.9123   -0.6764    0.0000 N   0  0  0  0  0  0  0  0  0  0  0  0
    3.9123   -1.5031    0.0000 C   0  0  0  0  0  0  0  0  0  0  0  0
    3.9206   -3.1482    0.0000 C   0  0  0  0  0  0  0  0  0  0  0  0
    3.1983   -2.7349    0.0000 C   0  0  0  0  0  0  0  0  0  0  0  0
    5.2275   -3.4238    0.0000 N   0  0  0  0  0  0  0  0  0  0  0  0
    4.6764   -2.8100    0.0000 C   0  0  0  0  0  0  0  0  0  0  0  0
    4.0083   -3.9707    0.0000 C   0  0  0  0  0  0  0  0  0  0  0  0
    4.8142   -4.1378    0.0000 C   0  0  0  0  0  0  0  0  0  0  0  0
    1.7704   -0.2630    0.0000 C   0  0  0  0  0  0  0  0  0  0  0  0
    3.1983    0.5720    0.0000 S   0  0  0  0  0  0  0  0  0  0  0  0
    6.5302   -4.0125    0.0000 C   0  0  0  0  0  0  0  0  0  0  0  0
    6.9811   -4.7097    0.0000 C   0  0  0  0  0  0  0  0  0  0  0  0
    1.7704   -1.9165    0.0000 O   0  0  0  0  0  0  0  0  0  0  0  0
    4.6346   -1.9165    0.0000 O   0  0  0  0  0  0  0  0  0  0  0  0
    6.0542   -3.3444    0.0000 C   0  0  0  0  0  0  0  0  0  0  0  0
    1.0564   -0.6764    0.0000 C   0  0  0  0  0  0  0  0  0  0  0  0
    1.7704    0.5720    0.0000 C   0  0  0  0  0  0  0  0  0  0  0  0
    0.3424    0.5720    0.0000 C   0  0  0  0  0  0  0  0  0  0  0  0
    0.3424   -0.2630    0.0000 C   0  0  0  0  0  0  0  0  0  0  0  0
    1.0564    0.9770    0.0000 C   0  0  0  0  0  0  0  0  0  0  0  0
   -0.3716    0.9853    0.0000 Br  0  0  0  0  0  0  0  0  0  0  0  0
    5.0647   -4.9269    0.0000 C   0  0  0  0  0  0  0  0  0  0  0  0
    3.4488   -4.5845    0.0000 C   0  0  0  0  0  0  0  0  0  0  0  0
    4.5135   -5.5407    0.0000 C   0  0  0  0  0  0  0  0  0  0  0  0
    3.7077   -5.3653    0.0000 C   0  0  0  0  0  0  0  0  0  0  0  0
  2  4  1  0  0  0  0
  3  1  1  0  0  0  0
  4  1  1  0  0  0  0
  5  3  1  0  0  0  0
  6  2  1  0  0  0  0
  6  5  1  0  0  0  0
  7  8  1  0  0  0  0
  8  2  2  0  0  0  0
  9 10  1  0  0  0  0
 10  7  2  0  0  0  0
 11  7  1  0  0  0  0
 12 11  1  0  0  0  0
 12  9  1  0  0  0  0
 13  1  1  0  0  0  0
 14  3  2  0  0  0  0
 15 19  1  0  0  0  0
 16 15  3  0  0  0  0
 17  4  2  0  0  0  0
 18  6  2  0  0  0  0
 19  9  1  0  0  0  0
 20 13  1  0  0  0  0
 21 13  2  0  0  0  0
 22 24  2  0  0  0  0
 23 20  2  0  0  0  0
 23 22  1  0  0  0  0
 24 21  1  0  0  0  0
 25 22  1  0  0  0  0
 26 12  2  0  0  0  0
 27 11  2  0  0  0  0
 28 29  2  0  0  0  0
 28 26  1  0  0  0  0
 29 27  1  0  0  0  0
M  END
>  <CdId>
686

>  <Mol Weight>
464.334

>  <Formula>
C22H14BrN3O2S

>  <Click_ID>
CLK010A11 __  __  __

$$$$
CLK010D11 __  __  __
 OpenBabel03171423152D

 26 27  0  0  0  0  0  0  0  0999 V2000
    2.8500   -1.9125    0.0000 C   0  0  0  0  0  0  0  0  0  0  0  0
    2.8500   -0.2542    0.0000 C   0  0  0  0  0  0  0  0  0  0  0  0
    3.5667   -0.6750    0.0000 N   0  0  0  0  0  0  0  0  0  0  0  0
    2.1417   -0.6750    0.0000 N   0  0  0  0  0  0  0  0  0  0  0  0
    2.1417   -1.5042    0.0000 C   0  0  0  0  0  0  0  0  0  0  0  0
    3.5667   -1.5042    0.0000 C   0  0  0  0  0  0  0  0  0  0  0  0
    2.8500   -2.7417    0.0000 C   0  0  0  0  0  0  0  0  0  0  0  0
    5.0000   -3.9667    0.0000 C   0  0  0  0  0  0  0  0  0  0  0  0
    4.2792   -4.3750    0.0000 C   0  0  0  0  0  0  0  0  0  0  0  0
    5.0000   -3.1417    0.0000 C   0  0  0  0  0  0  0  0  0  0  0  0
    3.5667   -3.1417    0.0000 C   0  0  0  0  0  0  0  0  0  0  0  0
    2.8500    0.5750    0.0000 S   0  0  0  0  0  0  0  0  0  0  0  0
    6.4167   -5.6250    0.0000 C   0  0  0  0  0  0  0  0  0  0  0  0
    7.1292   -6.0417    0.0000 C   0  0  0  0  0  0  0  0  0  0  0  0
    4.2875   -1.9167    0.0000 O   0  0  0  0  0  0  0  0  0  0  0  0
    1.4167   -1.9167    0.0000 O   0  0  0  0  0  0  0  0  0  0  0  0
    3.5667   -3.9625    0.0000 C   0  0  0  0  0  0  0  0  0  0  0  0
    4.2875   -2.7292    0.0000 C   0  0  0  0  0  0  0  0  0  0  0  0
    4.2792   -0.2625    0.0000 C   0  0  0  0  0  0  0  0  0  0  0  0
    1.4250   -0.2625    0.0000 C   0  0  0  0  0  0  0  0  0  0  0  0
    4.2792   -5.2000    0.0000 I   0  0  0  0  0  0  0  0  0  0  0  0
    5.7042   -4.3792    0.0000 O   0  0  0  0  0  0  0  0  0  0  0  0
    5.7042   -2.7417    0.0000 O   0  0  0  0  0  0  0  0  0  0  0  0
    5.7042   -5.2042    0.0000 C   0  0  0  0  0  0  0  0  0  0  0  0
    5.7042   -1.9167    0.0000 C   0  0  0  0  0  0  0  0  0  0  0  0
    6.4167   -1.5042    0.0000 C   0  0  0  0  0  0  0  0  0  0  0  0
  2  3  1  0  0  0  0
  3  6  1  0  0  0  0
  4  5  1  0  0  0  0
  4  2  1  0  0  0  0
  5  1  1  0  0  0  0
  6  1  1  0  0  0  0
  7  1  2  0  0  0  0
  8 10  2  0  0  0  0
  9 17  2  0  0  0  0
  9  8  1  0  0  0  0
 10 18  1  0  0  0  0
 11  7  1  0  0  0  0
 12  2  2  0  0  0  0
 13 24  1  0  0  0  0
 14 13  3  0  0  0  0
 15  6  2  0  0  0  0
 16  5  2  0  0  0  0
 17 11  1  0  0  0  0
 18 11  2  0  0  0  0
 19  3  1  0  0  0  0
 20  4  1  0  0  0  0
 21  9  1  0  0  0  0
 22  8  1  0  0  0  0
 23 10  1  0  0  0  0
 24 22  1  0  0  0  0
 25 23  1  0  0  0  0
 26 25  1  0  0  0  0
M  END
>  <CdId>
716

>  <Mol Weight>
484.308

>  <Formula>
C18H17IN2O4S

>  <Click_ID>
CLK010D11 __  __  __

$$$$
CLK011A06 __  __  __
 OpenBabel03171423152D

 23 24  0  0  0  0  0  0  0  0999 V2000
    2.8500   -1.9125    0.0000 C   0  0  0  0  0  0  0  0  0  0  0  0
    2.8500   -0.2542    0.0000 C   0  0  0  0  0  0  0  0  0  0  0  0
    3.5667   -0.6750    0.0000 N   0  0  0  0  0  0  0  0  0  0  0  0
    2.1417   -0.6750    0.0000 N   0  0  0  0  0  0  0  0  0  0  0  0
    2.1417   -1.5042    0.0000 C   0  0  0  0  0  0  0  0  0  0  0  0
    3.5667   -1.5042    0.0000 C   0  0  0  0  0  0  0  0  0  0  0  0
    2.8500   -2.7417    0.0000 C   0  0  0  0  0  0  0  0  0  0  0  0
    2.8500    0.5750    0.0000 S   0  0  0  0  0  0  0  0  0  0  0  0
    6.4167   -5.6250    0.0000 C   0  0  0  0  0  0  0  0  0  0  0  0
    7.1292   -6.0417    0.0000 C   0  0  0  0  0  0  0  0  0  0  0  0
    4.2792   -4.3750    0.0000 C   0  0  0  0  0  0  0  0  0  0  0  0
    1.4167   -1.9167    0.0000 O   0  0  0  0  0  0  0  0  0  0  0  0
    4.2875   -1.9167    0.0000 O   0  0  0  0  0  0  0  0  0  0  0  0
    3.5667   -3.1417    0.0000 C   0  0  0  0  0  0  0  0  0  0  0  0
    3.5667   -3.9625    0.0000 C   0  0  0  0  0  0  0  0  0  0  0  0
    5.0000   -3.9667    0.0000 C   0  0  0  0  0  0  0  0  0  0  0  0
    4.2792   -0.2625    0.0000 C   0  0  0  0  0  0  0  0  0  0  0  0
    1.4250   -0.2625    0.0000 C   0  0  0  0  0  0  0  0  0  0  0  0
    5.0000   -3.1417    0.0000 C   0  0  0  0  0  0  0  0  0  0  0  0
    4.2792   -5.2000    0.0000 Br  0  0  0  0  0  0  0  0  0  0  0  0
    4.2792   -2.7292    0.0000 C   0  0  0  0  0  0  0  0  0  0  0  0
    5.7042   -4.3792    0.0000 O   0  0  0  0  0  0  0  0  0  0  0  0
    5.7042   -5.2042    0.0000 C   0  0  0  0  0  0  0  0  0  0  0  0
  2  3  1  0  0  0  0
  3  6  1  0  0  0  0
  4  5  1  0  0  0  0
  4  2  1  0  0  0  0
  5  1  1  0  0  0  0
  6  1  1  0  0  0  0
  7  1  2  0  0  0  0
  8  2  2  0  0  0  0
  9 23  1  0  0  0  0
 10  9  3  0  0  0  0
 11 15  2  0  0  0  0
 11 16  1  0  0  0  0
 12  5  2  0  0  0  0
 13  6  2  0  0  0  0
 14  7  1  0  0  0  0
 15 14  1  0  0  0  0
 16 19  2  0  0  0  0
 17  3  1  0  0  0  0
 18  4  1  0  0  0  0
 19 21  1  0  0  0  0
 20 11  1  0  0  0  0
 21 14  2  0  0  0  0
 22 16  1  0  0  0  0
 23 22  1  0  0  0  0
M  END
>  <CdId>
761

>  <Mol Weight>
393.255

>  <Formula>
C16H13BrN2O3S

>  <Click_ID>
CLK011A06 __  __  __

$$$$
CLK011A10 __  __  __
 OpenBabel03171423152D

 13 13  0  0  0  0  0  0  0  0999 V2000
    2.2451    4.6202    0.0000 C   0  0  0  0  0  0  0  0  0  0  0  0
    2.2577    5.4427    0.0000 C   0  0  0  0  0  0  0  0  0  0  0  0
    2.2325    2.1485    0.0000 C   0  0  0  0  0  0  0  0  0  0  0  0
    1.5149    2.5556    0.0000 C   0  0  0  0  0  0  0  0  0  0  0  0
    2.2325    1.3176    0.0000 C   0  0  0  0  0  0  0  0  0  0  0  0
    0.8099    2.1485    0.0000 C   0  0  0  0  0  0  0  0  0  0  0  0
    0.8099   -0.3399    0.0000 O   0  0  0  0  0  0  0  0  0  0  0  0
    1.5275    0.9064    0.0000 C   0  0  0  0  0  0  0  0  0  0  0  0
    2.9458    2.5556    0.0000 Br  0  0  0  0  0  0  0  0  0  0  0  0
    1.5275    0.0755    0.0000 C   0  0  0  0  0  0  0  0  0  0  0  0
    0.8099    1.3176    0.0000 C   0  0  0  0  0  0  0  0  0  0  0  0
    1.5275    3.3864    0.0000 O   0  0  0  0  0  0  0  0  0  0  0  0
    2.2408    3.7977    0.0000 C   0  0  0  0  0  0  0  0  0  0  0  0
  2  1  3  0  0  0  0
  3  4  1  0  0  0  0
  4 12  1  0  0  0  0
  5  3  2  0  0  0  0
  6  4  2  0  0  0  0
  7 10  2  0  0  0  0
  8 11  2  0  0  0  0
  8  5  1  0  0  0  0
  9  3  1  0  0  0  0
 10  8  1  0  0  0  0
 11  6  1  0  0  0  0
 12 13  1  0  0  0  0
 13  1  1  0  0  0  0
M  END
>  <CdId>
765

>  <Mol Weight>
239.065

>  <Formula>
C10H7BrO2

>  <Click_ID>
CLK011A10 __  __  __

$$$$
CLK011C06 __  __  __
 OpenBabel03171423152D

 22 23  0  0  0  0  0  0  0  0999 V2000
    5.9450   -0.4321    0.0000 N   0  3  0  0  0  0  0  0  0  0  0  0
    5.2335   -0.0226    0.0000 C   0  0  0  0  0  0  0  0  0  0  0  0
   -1.1904   -1.2824    0.0000 C   0  0  0  0  0  0  0  0  0  0  0  0
   -1.1904   -0.4581    0.0000 C   0  0  0  0  0  0  0  0  0  0  0  0
    1.6624   -0.4442    0.0000 C   0  0  0  0  0  0  0  0  0  0  0  0
    4.5204   -0.4373    0.0000 C   0  0  0  0  0  0  0  0  0  0  0  0
    5.9519   -1.2563    0.0000 O   0  5  0  0  0  0  0  0  0  0  0  0
    6.6634   -0.0122    0.0000 O   0  0  0  0  0  0  0  0  0  0  0  0
    1.6658   -1.2702    0.0000 N   0  0  0  0  0  0  0  0  0  0  0  0
    0.9527   -1.6919    0.0000 C   0  0  0  0  0  0  0  0  0  0  0  0
    0.9440   -0.0364    0.0000 O   0  0  0  0  0  0  0  0  0  0  0  0
   -0.4772   -1.6919    0.0000 C   0  0  0  0  0  0  0  0  0  0  0  0
    3.8020   -0.0278    0.0000 C   0  0  0  0  0  0  0  0  0  0  0  0
    3.0888   -0.4390    0.0000 O   0  0  0  0  0  0  0  0  0  0  0  0
    2.3738   -0.0330    0.0000 C   0  0  0  0  0  0  0  0  0  0  0  0
    0.2360   -1.2772    0.0000 C   0  0  0  0  0  0  0  0  0  0  0  0
    5.2283    0.8017    0.0000 C   0  0  0  0  0  0  0  0  0  0  0  0
    4.5082    1.2129    0.0000 C   0  0  0  0  0  0  0  0  0  0  0  0
    0.2360   -2.9326    0.0000 C   0  0  0  0  0  0  0  0  0  0  0  0
    0.9527   -2.5196    0.0000 C   0  0  0  0  0  0  0  0  0  0  0  0
   -0.4772   -2.5196    0.0000 C   0  0  0  0  0  0  0  0  0  0  0  0
    3.8002    0.7965    0.0000 C   0  0  0  0  0  0  0  0  0  0  0  0
  2  1  1  0  0  0  0
  3 12  1  0  0  0  0
  4  3  3  0  0  0  0
  5 15  1  0  0  0  0
  6  2  1  0  0  0  0
  7  1  1  0  0  0  0
  8  1  2  0  0  0  0
  9  5  1  0  0  0  0
 10  9  1  0  0  0  0
 11  5  2  0  0  0  0
 12 16  1  0  0  0  0
 13  6  2  0  0  0  0
 13 22  1  0  0  0  0
 14 13  1  0  0  0  0
 15 14  1  0  0  0  0
 16 10  2  0  0  0  0
 17  2  2  0  0  0  0
 18 17  1  0  0  0  0
 19 20  2  0  0  0  0
 20 10  1  0  0  0  0
 21 19  1  0  0  0  0
 21 12  2  0  0  0  0
 22 18  2  0  0  0  0
M  CHG  2   1   1   7  -1
M  END
>  <CdId>
781

>  <Mol Weight>
296.2775

>  <Formula>
C16H12N2O4

>  <Click_ID>
CLK011C06 __  __  __

$$$$
CLK013A04 __  __  __
 OpenBabel03171423152D

 20 21  0  0  0  0  0  0  0  0999 V2000
    3.6000   -1.1500    0.0000 C   0  0  0  0  0  0  0  0  0  0  0  0
    0.7500   -1.9875    0.0000 C   0  0  0  0  0  0  0  0  0  0  0  0
    0.7500   -1.1625    0.0000 C   0  0  0  0  0  0  0  0  0  0  0  0
    3.6042   -1.9750    0.0000 N   0  0  0  0  0  0  0  0  0  0  0  0
    2.8792   -0.7417    0.0000 O   0  0  0  0  0  0  0  0  0  0  0  0
    2.8917   -2.3917    0.0000 C   0  0  0  0  0  0  0  0  0  0  0  0
    4.3125   -0.7375    0.0000 C   0  0  0  0  0  0  0  0  0  0  0  0
    1.4625   -2.3917    0.0000 C   0  0  0  0  0  0  0  0  0  0  0  0
    2.1750   -1.9792    0.0000 C   0  0  0  0  0  0  0  0  0  0  0  0
    4.3042    0.0875    0.0000 C   0  0  0  0  0  0  0  0  0  0  0  0
    4.3042    1.7375    0.0000 C   0  0  0  0  0  0  0  0  0  0  0  0
    5.0250    0.5000    0.0000 C   0  0  0  0  0  0  0  0  0  0  0  0
    3.5917    0.5000    0.0000 C   0  0  0  0  0  0  0  0  0  0  0  0
    3.5917    1.3208    0.0000 C   0  0  0  0  0  0  0  0  0  0  0  0
    5.0250    1.3250    0.0000 C   0  0  0  0  0  0  0  0  0  0  0  0
    4.3042    2.5625    0.0000 O   0  0  0  0  0  0  0  0  0  0  0  0
    2.1750   -3.6375    0.0000 C   0  0  0  0  0  0  0  0  0  0  0  0
    2.8917   -3.2250    0.0000 C   0  0  0  0  0  0  0  0  0  0  0  0
    1.4625   -3.2250    0.0000 C   0  0  0  0  0  0  0  0  0  0  0  0
    5.0167    2.9833    0.0000 C   0  0  0  0  0  0  0  0  0  0  0  0
  2  8  1  0  0  0  0
  3  2  3  0  0  0  0
  4  1  1  0  0  0  0
  5  1  2  0  0  0  0
  6  4  1  0  0  0  0
  7  1  1  0  0  0  0
  8  9  1  0  0  0  0
  8 19  2  0  0  0  0
  9  6  2  0  0  0  0
 10  7  1  0  0  0  0
 11 14  1  0  0  0  0
 12 10  2  0  0  0  0
 13 10  1  0  0  0  0
 14 13  2  0  0  0  0
 15 12  1  0  0  0  0
 15 11  2  0  0  0  0
 16 11  1  0  0  0  0
 17 18  2  0  0  0  0
 18  6  1  0  0  0  0
 19 17  1  0  0  0  0
 20 16  1  0  0  0  0
M  END
>  <CdId>
919

>  <Mol Weight>
265.3065

>  <Formula>
C17H15NO2

>  <Click_ID>
CLK013A04 __  __  __

$$$$
CLK013D04 __  __  __
 OpenBabel03171423152D

 19 20  0  0  0  0  0  0  0  0999 V2000
    2.8875   -0.7250    0.0000 C   0  0  0  0  0  0  0  0  0  0  0  0
    0.0375   -1.5625    0.0000 C   0  0  0  0  0  0  0  0  0  0  0  0
    0.0375   -0.7375    0.0000 C   0  0  0  0  0  0  0  0  0  0  0  0
    2.8917   -1.5500    0.0000 N   0  0  0  0  0  0  0  0  0  0  0  0
    2.1667   -0.3167    0.0000 O   0  0  0  0  0  0  0  0  0  0  0  0
    2.1792   -1.9667    0.0000 C   0  0  0  0  0  0  0  0  0  0  0  0
    3.6000   -0.3125    0.0000 C   0  0  0  0  0  0  0  0  0  0  0  0
    0.7500   -1.9667    0.0000 C   0  0  0  0  0  0  0  0  0  0  0  0
    1.4625   -1.5542    0.0000 C   0  0  0  0  0  0  0  0  0  0  0  0
    3.5917    0.5125    0.0000 C   0  0  0  0  0  0  0  0  0  0  0  0
    3.5917    2.1625    0.0000 C   0  0  0  0  0  0  0  0  0  0  0  0
    3.5917    2.9875    0.0000 Cl  0  0  0  0  0  0  0  0  0  0  0  0
    2.8792    1.7458    0.0000 C   0  0  0  0  0  0  0  0  0  0  0  0
    4.3125    1.7500    0.0000 C   0  0  0  0  0  0  0  0  0  0  0  0
    2.8792    0.9250    0.0000 C   0  0  0  0  0  0  0  0  0  0  0  0
    4.3125    0.9250    0.0000 C   0  0  0  0  0  0  0  0  0  0  0  0
    1.4625   -3.2125    0.0000 C   0  0  0  0  0  0  0  0  0  0  0  0
    2.1792   -2.8000    0.0000 C   0  0  0  0  0  0  0  0  0  0  0  0
    0.7500   -2.8000    0.0000 C   0  0  0  0  0  0  0  0  0  0  0  0
  2  8  1  0  0  0  0
  3  2  3  0  0  0  0
  4  1  1  0  0  0  0
  5  1  2  0  0  0  0
  6  4  1  0  0  0  0
  7  1  1  0  0  0  0
  8  9  1  0  0  0  0
  8 19  2  0  0  0  0
  9  6  2  0  0  0  0
 10  7  1  0  0  0  0
 11 14  2  0  0  0  0
 12 11  1  0  0  0  0
 13 15  2  0  0  0  0
 13 11  1  0  0  0  0
 14 16  1  0  0  0  0
 15 10  1  0  0  0  0
 16 10  2  0  0  0  0
 17 18  2  0  0  0  0
 18  6  1  0  0  0  0
 19 17  1  0  0  0  0
M  END
>  <CdId>
949

>  <Mol Weight>
269.726

>  <Formula>
C16H12ClNO

>  <Click_ID>
CLK013D04 __  __  __

$$$$
CLK013F06 __  __  __
 OpenBabel03171423152D

 32 35  0  0  0  0  0  0  0  0999 V2000
    1.5701   -0.8185    0.0000 N   0  0  0  0  0  0  0  0  0  0  0  0
    1.8290   -1.6077    0.0000 C   0  0  0  0  0  0  0  0  0  0  0  0
    2.9106   -0.8185    0.0000 C   0  0  0  0  0  0  0  0  0  0  0  0
    2.2424   -0.3299    0.0000 C   0  0  0  0  0  0  0  0  0  0  0  0
    2.6558   -1.6077    0.0000 S   0  0  0  0  0  0  0  0  0  0  0  0
    3.9837   -0.4677    0.0000 C   0  0  0  0  0  0  0  0  0  0  0  0
    4.1591    0.3340    0.0000 C   0  0  0  0  0  0  0  0  0  0  0  0
    4.9400    0.5846    0.0000 C   0  0  0  0  0  0  0  0  0  0  0  0
    2.8688    4.4096    0.0000 C   0  0  0  0  0  0  0  0  0  0  0  0
    0.6138    0.2463    0.0000 C   0  0  0  0  0  0  0  0  0  0  0  0
    0.3926    1.0481    0.0000 C   0  0  0  0  0  0  0  0  0  0  0  0
    3.5494    0.8894    0.0000 C   0  0  0  0  0  0  0  0  0  0  0  0
    1.3404   -2.2717    0.0000 O   0  0  0  0  0  0  0  0  0  0  0  0
    2.2341    0.4969    0.0000 O   0  0  0  0  0  0  0  0  0  0  0  0
    2.6851    3.6162    0.0000 C   0  0  0  0  0  0  0  0  0  0  0  0
    0.7892   -0.5637    0.0000 C   0  0  0  0  0  0  0  0  0  0  0  0
    2.7602    0.6389    0.0000 O   0  0  0  0  0  0  0  0  0  0  0  0
    2.2591    4.9650    0.0000 O   0  0  0  0  0  0  0  0  0  0  0  0
    5.1154    1.3905    0.0000 C   0  0  0  0  0  0  0  0  0  0  0  0
    3.7206    1.6995    0.0000 C   0  0  0  0  0  0  0  0  0  0  0  0
    4.5015    1.9501    0.0000 C   0  0  0  0  0  0  0  0  0  0  0  0
    1.8958    3.3656    0.0000 C   0  0  0  0  0  0  0  0  0  0  0  0
    3.2947    3.0525    0.0000 C   0  0  0  0  0  0  0  0  0  0  0  0
    3.6580    4.6519    0.0000 O   0  0  0  0  0  0  0  0  0  0  0  0
    2.1547    1.1984    0.0000 C   0  0  0  0  0  0  0  0  0  0  0  0
    2.3218    2.0002    0.0000 C   0  0  0  0  0  0  0  0  0  0  0  0
    1.7205    2.5514    0.0000 C   0  0  0  0  0  0  0  0  0  0  0  0
    3.1193    2.2507    0.0000 C   0  0  0  0  0  0  0  0  0  0  0  0
    5.5538    0.0334    0.0000 C   0  0  0  0  0  0  0  0  0  0  0  0
    5.8921    1.6494    0.0000 C   0  0  0  0  0  0  0  0  0  0  0  0
    6.3305    0.2881    0.0000 C   0  0  0  0  0  0  0  0  0  0  0  0
    6.5059    1.0982    0.0000 C   0  0  0  0  0  0  0  0  0  0  0  0
  2  1  1  0  0  0  0
  3  4  1  0  0  0  0
  3  5  1  0  0  0  0
  4  1  1  0  0  0  0
  5  2  1  0  0  0  0
  6  3  2  0  0  0  0
  7  6  1  0  0  0  0
  8  7  1  0  0  0  0
  9 15  1  0  0  0  0
 10 16  1  0  0  0  0
 11 10  3  0  0  0  0
 12  7  2  0  0  0  0
 13  2  2  0  0  0  0
 14  4  2  0  0  0  0
 15 23  2  0  0  0  0
 16  1  1  0  0  0  0
 17 12  1  0  0  0  0
 18  9  2  0  0  0  0
 19  8  1  0  0  0  0
 19 21  1  0  0  0  0
 20 12  1  0  0  0  0
 21 20  2  0  0  0  0
 22 27  2  0  0  0  0
 22 15  1  0  0  0  0
 23 28  1  0  0  0  0
 24  9  1  0  0  0  0
 25 17  1  0  0  0  0
 26 25  1  0  0  0  0
 27 26  1  0  0  0  0
 28 26  2  0  0  0  0
 29  8  2  0  0  0  0
 30 19  2  0  0  0  0
 30 32  1  0  0  0  0
 31 29  1  0  0  0  0
 32 31  2  0  0  0  0
M  END
>  <CdId>
971

>  <Mol Weight>
443.471

>  <Formula>
C25H17NO5S

>  <Click_ID>
CLK013F06 __  __  __

$$$$
CLK014D06 __  __  __
 OpenBabel03171423152D

 28 30  0  0  0  0  0  0  0  0999 V2000
    2.4095   -1.9973    0.0000 N   0  0  0  0  0  0  0  0  0  0  0  0
    0.9803   -1.9973    0.0000 C   0  0  0  0  0  0  0  0  0  0  0  0
    1.6949   -1.5850    0.0000 C   0  0  0  0  0  0  0  0  0  0  0  0
    2.4095   -2.8218    0.0000 C   0  0  0  0  0  0  0  0  0  0  0  0
    1.6949   -3.2341    0.0000 N   0  0  0  0  0  0  0  0  0  0  0  0
    0.9803   -2.8218    0.0000 C   0  0  0  0  0  0  0  0  0  0  0  0
    3.1241   -1.5850    0.0000 C   0  0  0  0  0  0  0  0  0  0  0  0
    0.2657   -1.5850    0.0000 C   0  0  0  0  0  0  0  0  0  0  0  0
    3.1241   -0.7604    0.0000 C   0  0  0  0  0  0  0  0  0  0  0  0
    3.8387   -0.3482    0.0000 C   0  0  0  0  0  0  0  0  0  0  0  0
   -2.5927    0.8886    0.0000 C   0  0  0  0  0  0  0  0  0  0  0  0
    3.1241   -3.2341    0.0000 O   0  0  0  0  0  0  0  0  0  0  0  0
   -3.3073    0.4764    0.0000 C   0  0  0  0  0  0  0  0  0  0  0  0
    1.6949   -0.7604    0.0000 O   0  0  0  0  0  0  0  0  0  0  0  0
    0.2657   -3.2341    0.0000 O   0  0  0  0  0  0  0  0  0  0  0  0
    3.8387   -1.9973    0.0000 C   0  0  0  0  0  0  0  0  0  0  0  0
    4.5533   -0.7604    0.0000 C   0  0  0  0  0  0  0  0  0  0  0  0
    0.2657   -0.7604    0.0000 C   0  0  0  0  0  0  0  0  0  0  0  0
    4.5533   -1.5850    0.0000 C   0  0  0  0  0  0  0  0  0  0  0  0
    3.8387    0.4764    0.0000 Cl  0  0  0  0  0  0  0  0  0  0  0  0
   -0.4489   -0.3482    0.0000 C   0  0  0  0  0  0  0  0  0  0  0  0
    5.2679   -0.3482    0.0000 Cl  0  0  0  0  0  0  0  0  0  0  0  0
   -0.4489    0.4764    0.0000 C   0  0  0  0  0  0  0  0  0  0  0  0
   -1.8781    0.4764    0.0000 C   0  0  0  0  0  0  0  0  0  0  0  0
   -1.1635    0.8886    0.0000 O   0  0  0  0  0  0  0  0  0  0  0  0
    0.9803    0.4764    0.0000 C   0  0  0  0  0  0  0  0  0  0  0  0
    0.9803   -0.3482    0.0000 C   0  0  0  0  0  0  0  0  0  0  0  0
    0.2657    0.8886    0.0000 C   0  0  0  0  0  0  0  0  0  0  0  0
  2  3  1  0  0  0  0
  3  1  1  0  0  0  0
  4  1  1  0  0  0  0
  5  4  1  0  0  0  0
  6  5  1  0  0  0  0
  6  2  1  0  0  0  0
  7  1  1  0  0  0  0
  8  2  2  0  0  0  0
  9  7  2  0  0  0  0
 10  9  1  0  0  0  0
 11 24  1  0  0  0  0
 12  4  2  0  0  0  0
 13 11  3  0  0  0  0
 14  3  2  0  0  0  0
 15  6  2  0  0  0  0
 16  7  1  0  0  0  0
 17 19  1  0  0  0  0
 17 10  2  0  0  0  0
 18  8  1  0  0  0  0
 19 16  2  0  0  0  0
 20 10  1  0  0  0  0
 21 18  2  0  0  0  0
 22 17  1  0  0  0  0
 23 21  1  0  0  0  0
 24 25  1  0  0  0  0
 25 23  1  0  0  0  0
 26 27  2  0  0  0  0
 27 18  1  0  0  0  0
 28 26  1  0  0  0  0
 28 23  2  0  0  0  0
M  END
>  <CdId>
1031

>  <Mol Weight>
415.226

>  <Formula>
C20H12Cl2N2O4

>  <Click_ID>
CLK014D06 __  __  __

$$$$
CLK015A08 __  __  __
 OpenBabel03171423152D

 24 26  0  0  0  0  0  0  0  0999 V2000
    1.5659   -0.8163    0.0000 N   0  0  0  0  0  0  0  0  0  0  0  0
    1.8241   -1.6034    0.0000 C   0  0  0  0  0  0  0  0  0  0  0  0
    2.9028   -0.8163    0.0000 C   0  0  0  0  0  0  0  0  0  0  0  0
    2.2364   -0.3290    0.0000 C   0  0  0  0  0  0  0  0  0  0  0  0
    4.5270    1.3951    0.0000 N   0  0  0  0  0  0  0  0  0  0  0  0
    3.8606    0.2457    0.0000 C   0  0  0  0  0  0  0  0  0  0  0  0
    2.6487   -1.6034    0.0000 S   0  0  0  0  0  0  0  0  0  0  0  0
    3.7274    1.5700    0.0000 C   0  0  0  0  0  0  0  0  0  0  0  0
    4.6144    0.5747    0.0000 C   0  0  0  0  0  0  0  0  0  0  0  0
    3.6899   -0.5622    0.0000 C   0  0  0  0  0  0  0  0  0  0  0  0
    3.3109    0.8579    0.0000 C   0  0  0  0  0  0  0  0  0  0  0  0
    0.6122    0.2457    0.0000 C   0  0  0  0  0  0  0  0  0  0  0  0
    0.3915    1.0453    0.0000 C   0  0  0  0  0  0  0  0  0  0  0  0
    1.3368   -2.2656    0.0000 O   0  0  0  0  0  0  0  0  0  0  0  0
    5.1475    1.9448    0.0000 C   0  0  0  0  0  0  0  0  0  0  0  0
    2.2281    0.4956    0.0000 O   0  0  0  0  0  0  0  0  0  0  0  0
    0.7871   -0.5622    0.0000 C   0  0  0  0  0  0  0  0  0  0  0  0
    5.5889    3.2984    0.0000 N   0  0  0  0  0  0  0  0  0  0  0  0
    3.3983    2.3322    0.0000 C   0  0  0  0  0  0  0  0  0  0  0  0
    5.3266    0.1582    0.0000 C   0  0  0  0  0  0  0  0  0  0  0  0
    4.9768    2.7486    0.0000 C   0  0  0  0  0  0  0  0  0  0  0  0
    6.3761    3.0443    0.0000 C   0  0  0  0  0  0  0  0  0  0  0  0
    5.9263    1.6867    0.0000 C   0  0  0  0  0  0  0  0  0  0  0  0
    6.5385    2.2364    0.0000 C   0  0  0  0  0  0  0  0  0  0  0  0
  2  1  1  0  0  0  0
  3  4  1  0  0  0  0
  3  7  1  0  0  0  0
  4  1  1  0  0  0  0
  5  9  1  0  0  0  0
  6 10  1  0  0  0  0
  7  2  1  0  0  0  0
  8 11  2  0  0  0  0
  8  5  1  0  0  0  0
  9  6  2  0  0  0  0
 10  3  2  0  0  0  0
 11  6  1  0  0  0  0
 12 17  1  0  0  0  0
 13 12  3  0  0  0  0
 14  2  2  0  0  0  0
 15  5  1  0  0  0  0
 16  4  2  0  0  0  0
 17  1  1  0  0  0  0
 18 21  2  0  0  0  0
 19  8  1  0  0  0  0
 20  9  1  0  0  0  0
 21 15  1  0  0  0  0
 22 24  2  0  0  0  0
 22 18  1  0  0  0  0
 23 15  2  0  0  0  0
 24 23  1  0  0  0  0
M  END
>  <CdId>
1083

>  <Mol Weight>
337.396

>  <Formula>
C18H15N3O2S

>  <Click_ID>
CLK015A08 __  __  __

$$$$
CLK015D05 __  __  __
 OpenBabel03171423152D

 24 26  0  0  0  0  0  0  0  0999 V2000
    2.1093   -0.2288    0.0000 N   0  0  0  0  0  0  0  0  0  0  0  0
    2.3589   -1.0151    0.0000 C   0  0  0  0  0  0  0  0  0  0  0  0
    3.4364   -0.2288    0.0000 C   0  0  0  0  0  0  0  0  0  0  0  0
    5.0672    1.9802    0.0000 N   0  0  0  0  0  0  0  0  0  0  0  0
    2.7707    0.2579    0.0000 C   0  0  0  0  0  0  0  0  0  0  0  0
    4.3974    0.8320    0.0000 C   0  0  0  0  0  0  0  0  0  0  0  0
    3.1826   -1.0151    0.0000 S   0  0  0  0  0  0  0  0  0  0  0  0
    4.2601    2.1550    0.0000 C   0  0  0  0  0  0  0  0  0  0  0  0
    5.1463    1.1690    0.0000 C   0  0  0  0  0  0  0  0  0  0  0  0
    4.2227    0.0250    0.0000 C   0  0  0  0  0  0  0  0  0  0  0  0
    3.8483    1.4436    0.0000 C   0  0  0  0  0  0  0  0  0  0  0  0
    5.6788    2.5294    0.0000 C   0  0  0  0  0  0  0  0  0  0  0  0
    0.7114   -0.5284    0.0000 C   0  0  0  0  0  0  0  0  0  0  0  0
    0.1248   -1.1108    0.0000 C   0  0  0  0  0  0  0  0  0  0  0  0
    1.8763   -1.6766    0.0000 O   0  0  0  0  0  0  0  0  0  0  0  0
    2.7707    1.0816    0.0000 O   0  0  0  0  0  0  0  0  0  0  0  0
    5.5082    3.3407    0.0000 N   0  0  0  0  0  0  0  0  0  0  0  0
    1.3272    0.0250    0.0000 C   0  0  0  0  0  0  0  0  0  0  0  0
    3.9232    2.9080    0.0000 C   0  0  0  0  0  0  0  0  0  0  0  0
    5.8577    0.7488    0.0000 C   0  0  0  0  0  0  0  0  0  0  0  0
    6.4650    2.2715    0.0000 C   0  0  0  0  0  0  0  0  0  0  0  0
    6.1281    3.8898    0.0000 C   0  0  0  0  0  0  0  0  0  0  0  0
    7.0766    2.8289    0.0000 C   0  0  0  0  0  0  0  0  0  0  0  0
    6.9061    3.6277    0.0000 C   0  0  0  0  0  0  0  0  0  0  0  0
  2  1  1  0  0  0  0
  3  5  1  0  0  0  0
  3  7  1  0  0  0  0
  4  9  1  0  0  0  0
  5  1  1  0  0  0  0
  6 10  1  0  0  0  0
  7  2  1  0  0  0  0
  8 11  2  0  0  0  0
  8  4  1  0  0  0  0
  9  6  2  0  0  0  0
 10  3  2  0  0  0  0
 11  6  1  0  0  0  0
 12  4  1  0  0  0  0
 13 18  1  0  0  0  0
 14 13  3  0  0  0  0
 15  2  2  0  0  0  0
 16  5  2  0  0  0  0
 17 12  1  0  0  0  0
 18  1  1  0  0  0  0
 19  8  1  0  0  0  0
 20  9  1  0  0  0  0
 21 12  2  0  0  0  0
 22 17  2  0  0  0  0
 23 21  1  0  0  0  0
 24 23  2  0  0  0  0
 24 22  1  0  0  0  0
M  END
>  <CdId>
1110

>  <Mol Weight>
337.396

>  <Formula>
C18H15N3O2S

>  <Click_ID>
CLK015D05 __  __  __

$$$$
CLK015F04 __  __  __
 OpenBabel03171423152D

 25 27  0  0  0  0  0  0  0  0999 V2000
    2.1097   -0.2289    0.0000 N   0  0  0  0  0  0  0  0  0  0  0  0
    2.3593   -1.0153    0.0000 C   0  0  0  0  0  0  0  0  0  0  0  0
    3.4371   -0.2289    0.0000 C   0  0  0  0  0  0  0  0  0  0  0  0
    5.0682    1.9848    0.0000 N   0  0  0  0  0  0  0  0  0  0  0  0
    2.7713    0.2580    0.0000 C   0  0  0  0  0  0  0  0  0  0  0  0
    4.3983    0.8322    0.0000 C   0  0  0  0  0  0  0  0  0  0  0  0
    3.1832   -1.0153    0.0000 S   0  0  0  0  0  0  0  0  0  0  0  0
    4.2609    2.1554    0.0000 C   0  0  0  0  0  0  0  0  0  0  0  0
    5.1472    1.1692    0.0000 C   0  0  0  0  0  0  0  0  0  0  0  0
    4.2235    0.0250    0.0000 C   0  0  0  0  0  0  0  0  0  0  0  0
    3.8490    1.4438    0.0000 C   0  0  0  0  0  0  0  0  0  0  0  0
    5.6715    2.5424    0.0000 C   0  0  0  0  0  0  0  0  0  0  0  0
    5.5051    3.3413    0.0000 N   0  0  0  0  0  0  0  0  0  0  0  0
    0.7115   -0.5285    0.0000 C   0  0  0  0  0  0  0  0  0  0  0  0
    0.1248   -1.1110    0.0000 C   0  0  0  0  0  0  0  0  0  0  0  0
    1.8767   -1.6769    0.0000 O   0  0  0  0  0  0  0  0  0  0  0  0
    2.7713    1.0818    0.0000 O   0  0  0  0  0  0  0  0  0  0  0  0
    1.3274    0.0250    0.0000 C   0  0  0  0  0  0  0  0  0  0  0  0
    6.4538    2.2802    0.0000 C   0  0  0  0  0  0  0  0  0  0  0  0
    6.1167    3.8905    0.0000 C   0  0  0  0  0  0  0  0  0  0  0  0
    3.9239    2.9086    0.0000 C   0  0  0  0  0  0  0  0  0  0  0  0
    5.8588    0.7490    0.0000 C   0  0  0  0  0  0  0  0  0  0  0  0
    7.0696    2.8337    0.0000 C   0  0  0  0  0  0  0  0  0  0  0  0
    6.9032    3.6409    0.0000 C   0  0  0  0  0  0  0  0  0  0  0  0
    7.5148    4.1860    0.0000 C   0  0  0  0  0  0  0  0  0  0  0  0
  2  1  1  0  0  0  0
  3  5  1  0  0  0  0
  3  7  1  0  0  0  0
  4  9  1  0  0  0  0
  5  1  1  0  0  0  0
  6 10  1  0  0  0  0
  7  2  1  0  0  0  0
  8 11  2  0  0  0  0
  8  4  1  0  0  0  0
  9  6  2  0  0  0  0
 10  3  2  0  0  0  0
 11  6  1  0  0  0  0
 12  4  1  0  0  0  0
 13 12  1  0  0  0  0
 14 18  1  0  0  0  0
 15 14  3  0  0  0  0
 16  2  2  0  0  0  0
 17  5  2  0  0  0  0
 18  1  1  0  0  0  0
 19 12  2  0  0  0  0
 20 13  2  0  0  0  0
 21  8  1  0  0  0  0
 22  9  1  0  0  0  0
 23 19  1  0  0  0  0
 24 23  2  0  0  0  0
 24 20  1  0  0  0  0
 25 24  1  0  0  0  0
M  END
>  <CdId>
1129

>  <Mol Weight>
351.422

>  <Formula>
C19H17N3O2S

>  <Click_ID>
CLK015F04 __  __  __

$$$$
CLK015F05 __  __  __
 OpenBabel03171423152D

 15 15  0  0  0  0  0  0  0  0999 V2000
   -0.3922    0.0724    0.0000 N   0  3  0  0  0  0  0  0  0  0  0  0
    0.3454   -0.3497    0.0000 C   0  0  0  0  0  0  0  0  0  0  0  0
    1.0745    0.0724    0.0000 C   0  0  0  0  0  0  0  0  0  0  0  0
    3.7606    1.5946    0.0000 C   0  0  0  0  0  0  0  0  0  0  0  0
    4.1827    2.3237    0.0000 C   0  0  0  0  0  0  0  0  0  0  0  0
   -0.3922    0.9167    0.0000 O   0  5  0  0  0  0  0  0  0  0  0  0
   -1.1213   -0.3497    0.0000 O   0  0  0  0  0  0  0  0  0  0  0  0
    1.8078   -0.3497    0.0000 C   0  0  0  0  0  0  0  0  0  0  0  0
    2.5198    0.0597    0.0000 C   0  0  0  0  0  0  0  0  0  0  0  0
    2.5241    0.8783    0.0000 O   0  0  0  0  0  0  0  0  0  0  0  0
    2.9335    1.5946    0.0000 C   0  0  0  0  0  0  0  0  0  0  0  0
    1.8078   -1.1640    0.0000 C   0  0  0  0  0  0  0  0  0  0  0  0
    3.2277   -0.3497    0.0000 C   0  0  0  0  0  0  0  0  0  0  0  0
    3.2277   -1.1640    0.0000 C   0  0  0  0  0  0  0  0  0  0  0  0
    2.5241   -1.5733    0.0000 C   0  0  0  0  0  0  0  0  0  0  0  0
  2  1  1  0  0  0  0
  3  2  2  0  0  0  0
  4 11  1  0  0  0  0
  5  4  3  0  0  0  0
  6  1  1  0  0  0  0
  7  1  2  0  0  0  0
  8  3  1  0  0  0  0
  9  8  2  0  0  0  0
 10  9  1  0  0  0  0
 11 10  1  0  0  0  0
 12  8  1  0  0  0  0
 13  9  1  0  0  0  0
 13 14  2  0  0  0  0
 14 15  1  0  0  0  0
 15 12  2  0  0  0  0
M  CHG  2   1   1   6  -1
M  END
>  <CdId>
1130

>  <Mol Weight>
203.1941

>  <Formula>
C11H9NO3

>  <Click_ID>
CLK015F05 __  __  __

$$$$
CLK016E03 __  __  __
 OpenBabel03171423152D

 21 23  0  0  0  0  0  0  0  0999 V2000
    1.5674   -0.8171    0.0000 N   0  0  0  0  0  0  0  0  0  0  0  0
    1.8259   -1.6050    0.0000 C   0  0  0  0  0  0  0  0  0  0  0  0
    2.9056   -0.8171    0.0000 C   0  0  0  0  0  0  0  0  0  0  0  0
    2.2386   -0.3294    0.0000 C   0  0  0  0  0  0  0  0  0  0  0  0
    4.1436    0.3335    0.0000 C   0  0  0  0  0  0  0  0  0  0  0  0
    2.6512   -1.6050    0.0000 S   0  0  0  0  0  0  0  0  0  0  0  0
    3.9769   -0.4669    0.0000 C   0  0  0  0  0  0  0  0  0  0  0  0
    3.6017    0.9379    0.0000 C   0  0  0  0  0  0  0  0  0  0  0  0
    4.0061    1.6591    0.0000 N   0  0  0  0  0  0  0  0  0  0  0  0
    4.8940    0.6628    0.0000 C   0  0  0  0  0  0  0  0  0  0  0  0
    4.8148    1.4840    0.0000 C   0  0  0  0  0  0  0  0  0  0  0  0
    0.6128    0.2459    0.0000 C   0  0  0  0  0  0  0  0  0  0  0  0
    0.3919    1.0463    0.0000 C   0  0  0  0  0  0  0  0  0  0  0  0
    1.3381   -2.2678    0.0000 O   0  0  0  0  0  0  0  0  0  0  0  0
    2.2302    0.4960    0.0000 O   0  0  0  0  0  0  0  0  0  0  0  0
    0.7879   -0.5628    0.0000 C   0  0  0  0  0  0  0  0  0  0  0  0
    2.7805    0.8587    0.0000 C   0  0  0  0  0  0  0  0  0  0  0  0
    5.6318    0.2876    0.0000 C   0  0  0  0  0  0  0  0  0  0  0  0
    5.5068    1.9259    0.0000 C   0  0  0  0  0  0  0  0  0  0  0  0
    6.3072    0.7587    0.0000 C   0  0  0  0  0  0  0  0  0  0  0  0
    6.2446    1.5757    0.0000 C   0  0  0  0  0  0  0  0  0  0  0  0
  2  1  1  0  0  0  0
  3  4  1  0  0  0  0
  3  6  1  0  0  0  0
  4  1  1  0  0  0  0
  5  7  1  0  0  0  0
  6  2  1  0  0  0  0
  7  3  2  0  0  0  0
  8  5  2  0  0  0  0
  9  8  1  0  0  0  0
 10  5  1  0  0  0  0
 11 10  1  0  0  0  0
 11  9  1  0  0  0  0
 12 16  1  0  0  0  0
 13 12  3  0  0  0  0
 14  2  2  0  0  0  0
 15  4  2  0  0  0  0
 16  1  1  0  0  0  0
 17  8  1  0  0  0  0
 18 10  2  0  0  0  0
 19 11  2  0  0  0  0
 19 21  1  0  0  0  0
 20 18  1  0  0  0  0
 21 20  2  0  0  0  0
M  END
>  <CdId>
1198

>  <Mol Weight>
296.344

>  <Formula>
C16H12N2O2S

>  <Click_ID>
CLK016E03 __  __  __

$$$$
CLK017A03 __  __  __
 OpenBabel03171423152D

 33 36  0  0  0  0  0  0  0  0999 V2000
    2.4521   -2.5208    0.0000 C   0  0  0  0  0  0  0  0  0  0  0  0
    1.7233   -1.2971    0.0000 C   0  0  0  0  0  0  0  0  0  0  0  0
    1.7325   -2.1175    0.0000 C   0  0  3  0  0  0  0  0  0  0  0  0
    2.4246   -0.8800    0.0000 C   0  0  0  0  0  0  0  0  0  0  0  0
    3.1533   -2.0946    0.0000 C   0  0  0  0  0  0  0  0  0  0  0  0
    3.1396   -1.2787    0.0000 O   0  0  0  0  0  0  0  0  0  0  0  0
    2.4521   -3.3321    0.0000 C   0  0  0  0  0  0  0  0  0  0  0  0
    1.0037   -0.8937    0.0000 C   0  0  0  0  0  0  0  0  0  0  0  0
    1.0221   -2.5346    0.0000 C   0  0  0  0  0  0  0  0  0  0  0  0
    0.3025   -2.1358    0.0000 C   0  0  0  0  0  0  0  0  0  0  0  0
    2.4108   -0.0459    0.0000 C   0  0  0  0  0  0  0  0  0  0  0  0
    3.8774   -2.5025    0.0000 C   0  0  0  0  0  0  0  0  0  0  0  0
    3.8821   -3.3274    0.0000 C   0  0  0  0  0  0  0  0  0  0  0  0
    1.6958    0.3437    0.0000 C   0  0  0  0  0  0  0  0  0  0  0  0
   -1.8012   -5.0599    0.0000 C   0  0  0  0  0  0  0  0  0  0  0  0
    3.1808   -3.7446    0.0000 C   0  0  0  0  0  0  0  0  0  0  0  0
    0.9946   -0.0734    0.0000 C   0  0  0  0  0  0  0  0  0  0  0  0
   -1.7875   -5.8849    0.0000 C   0  0  0  0  0  0  0  0  0  0  0  0
   -0.4079   -2.5621    0.0000 C   0  0  0  0  0  0  0  0  0  0  0  0
    1.7371   -3.7674    0.0000 O   0  0  0  0  0  0  0  0  0  0  0  0
    0.2887   -1.3108    0.0000 O   0  0  0  0  0  0  0  0  0  0  0  0
    1.0359   -3.3596    0.0000 C   0  0  0  0  0  0  0  0  0  0  0  0
   -0.3941   -3.3871    0.0000 C   0  0  0  0  0  0  0  0  0  0  0  0
    0.3209   -3.7858    0.0000 C   0  0  0  0  0  0  0  0  0  0  0  0
   -1.1275   -2.1587    0.0000 O   0  0  0  0  0  0  0  0  0  0  0  0
   -1.1091   -3.8087    0.0000 O   0  0  0  0  0  0  0  0  0  0  0  0
   -1.0954   -4.6383    0.0000 C   0  0  0  0  0  0  0  0  0  0  0  0
    1.6821    1.1825    0.0000 C   0  0  0  0  0  0  0  0  0  0  0  0
    0.8662    0.3300    0.0000 C   0  0  0  0  0  0  0  0  0  0  0  0
    4.6108   -3.7308    0.0000 C   0  0  0  0  0  0  0  0  0  0  0  0
    3.4787   -4.0562    0.0000 C   0  0  0  0  0  0  0  0  0  0  0  0
   -1.1412   -1.3337    0.0000 C   0  0  0  0  0  0  0  0  0  0  0  0
   -1.8654   -0.9259    0.0000 C   0  0  0  0  0  0  0  0  0  0  0  0
  2  3  1  0  0  0  0
  2  4  2  0  0  0  0
  3  1  1  0  0  0  0
  4  6  1  0  0  0  0
  5  1  2  0  0  0  0
  6  5  1  0  0  0  0
  7  1  1  0  0  0  0
  8  2  1  0  0  0  0
  9  3  1  0  0  0  0
 10  9  1  0  0  0  0
 11  4  1  0  0  0  0
 12  5  1  0  0  0  0
 13 16  1  0  0  0  0
 13 12  1  0  0  0  0
 14 11  1  0  0  0  0
 14 17  1  0  0  0  0
 15 27  1  0  0  0  0
 16  7  1  0  0  0  0
 17  8  1  0  0  0  0
 18 15  3  0  0  0  0
 19 10  2  0  0  0  0
 20  7  2  0  0  0  0
 21  8  2  0  0  0  0
 22  9  2  0  0  0  0
 23 24  2  0  0  0  0
 23 19  1  0  0  0  0
 24 22  1  0  0  0  0
 25 19  1  0  0  0  0
 26 23  1  0  0  0  0
 27 26  1  0  0  0  0
 28 14  1  0  0  0  0
 29 14  1  0  0  0  0
 30 13  1  0  0  0  0
 31 13  1  0  0  0  0
 32 25  1  0  0  0  0
 33 32  1  0  0  0  0
M  END
>  <CdId>
1238

>  <Mol Weight>
448.5507

>  <Formula>
C28H32O5

>  <Click_ID>
CLK017A03 __  __  __

$$$$
CLK017A04 __  __  __
 OpenBabel03171423152D

 30 33  0  0  0  0  0  0  0  0999 V2000
    2.4522   -2.5210    0.0000 C   0  0  0  0  0  0  0  0  0  0  0  0
    1.7235   -1.2972    0.0000 C   0  0  0  0  0  0  0  0  0  0  0  0
    2.4247   -0.8800    0.0000 C   0  0  0  0  0  0  0  0  0  0  0  0
    3.1535   -2.0947    0.0000 C   0  0  0  0  0  0  0  0  0  0  0  0
    1.7326   -2.1176    0.0000 C   0  0  3  0  0  0  0  0  0  0  0  0
    3.1398   -1.2788    0.0000 O   0  0  0  0  0  0  0  0  0  0  0  0
    2.4522   -3.3323    0.0000 C   0  0  0  0  0  0  0  0  0  0  0  0
    1.0038   -0.8938    0.0000 C   0  0  0  0  0  0  0  0  0  0  0  0
    2.4110   -0.0459    0.0000 C   0  0  0  0  0  0  0  0  0  0  0  0
    3.8777   -2.5026    0.0000 C   0  0  0  0  0  0  0  0  0  0  0  0
    3.8823   -3.3277    0.0000 C   0  0  0  0  0  0  0  0  0  0  0  0
    1.6960    0.3438    0.0000 C   0  0  0  0  0  0  0  0  0  0  0  0
   -1.8013   -5.0602    0.0000 C   0  0  0  0  0  0  0  0  0  0  0  0
    3.1810   -3.7448    0.0000 C   0  0  0  0  0  0  0  0  0  0  0  0
    0.9947   -0.0734    0.0000 C   0  0  0  0  0  0  0  0  0  0  0  0
    1.0222   -2.5347    0.0000 C   0  0  0  0  0  0  0  0  0  0  0  0
   -1.7876   -5.8853    0.0000 C   0  0  0  0  0  0  0  0  0  0  0  0
    1.7372   -3.7677    0.0000 O   0  0  0  0  0  0  0  0  0  0  0  0
    0.2888   -1.3109    0.0000 O   0  0  0  0  0  0  0  0  0  0  0  0
    1.0359   -3.3598    0.0000 C   0  0  0  0  0  0  0  0  0  0  0  0
    0.3025   -2.1360    0.0000 C   0  0  0  0  0  0  0  0  0  0  0  0
   -0.3941   -3.3873    0.0000 C   0  0  0  0  0  0  0  0  0  0  0  0
   -0.4079   -2.5622    0.0000 C   0  0  0  0  0  0  0  0  0  0  0  0
    0.3209   -3.7860    0.0000 C   0  0  0  0  0  0  0  0  0  0  0  0
   -1.0954   -4.6386    0.0000 C   0  0  0  0  0  0  0  0  0  0  0  0
   -1.1092   -3.8089    0.0000 O   0  0  0  0  0  0  0  0  0  0  0  0
    3.4789   -4.0564    0.0000 C   0  0  0  0  0  0  0  0  0  0  0  0
    1.6822    1.1826    0.0000 C   0  0  0  0  0  0  0  0  0  0  0  0
    0.8663    0.3300    0.0000 C   0  0  0  0  0  0  0  0  0  0  0  0
    4.6111   -3.7310    0.0000 C   0  0  0  0  0  0  0  0  0  0  0  0
  2  5  1  0  0  0  0
  3  2  2  0  0  0  0
  3  6  1  0  0  0  0
  4  1  2  0  0  0  0
  5  1  1  0  0  0  0
  6  4  1  0  0  0  0
  7  1  1  0  0  0  0
  8  2  1  0  0  0  0
  9  3  1  0  0  0  0
  9 12  1  0  0  0  0
 10  4  1  0  0  0  0
 11 14  1  0  0  0  0
 11 10  1  0  0  0  0
 12 15  1  0  0  0  0
 13 25  1  0  0  0  0
 14  7  1  0  0  0  0
 15  8  1  0  0  0  0
 16  5  1  0  0  0  0
 17 13  3  0  0  0  0
 18  7  2  0  0  0  0
 19  8  2  0  0  0  0
 20 16  2  0  0  0  0
 21 16  1  0  0  0  0
 22 23  1  0  0  0  0
 23 21  2  0  0  0  0
 24 20  1  0  0  0  0
 24 22  2  0  0  0  0
 25 26  1  0  0  0  0
 26 22  1  0  0  0  0
 27 11  1  0  0  0  0
 28 12  1  0  0  0  0
 29 12  1  0  0  0  0
 30 11  1  0  0  0  0
M  END
>  <CdId>
1239

>  <Mol Weight>
404.4981

>  <Formula>
C26H28O4

>  <Click_ID>
CLK017A04 __  __  __

$$$$
CLK017B10 __  __  __
 OpenBabel03171423152D

 30 34  0  0  0  0  0  0  0  0999 V2000
   -0.6119   -2.2125    0.0000 N   0  0  0  0  0  0  0  0  0  0  0  0
   -1.2924   -1.7460    0.0000 C   0  0  0  0  0  0  0  0  0  0  0  0
   -0.8559   -3.0170    0.0000 C   0  0  0  0  0  0  0  0  0  0  0  0
   -2.5120   -1.6476    0.0000 C   0  0  3  0  0  0  0  0  0  0  0  0
   -2.8630   -1.0442    0.0000 C   0  0  3  0  0  0  0  0  0  0  0  0
   -1.9343   -2.2510    0.0000 C   0  0  3  0  0  0  0  0  0  0  0  0
   -1.6647   -3.0342    0.0000 C   0  0  3  0  0  0  0  0  0  0  0  0
   -2.7731   -2.0071    0.0000 C   0  0  3  0  0  0  0  0  0  0  0  0
   -2.5120   -2.7774    0.0000 C   0  0  3  0  0  0  0  0  0  0  0  0
   -2.1654   -1.0442    0.0000 C   0  0  0  0  0  0  0  0  0  0  0  0
    0.1712   -1.9386    0.0000 N   0  0  0  0  0  0  0  0  0  0  0  0
   -3.5776   -2.4950    0.0000 C   0  0  0  0  0  0  0  0  0  0  0  0
   -3.3508   -3.2866    0.0000 C   0  0  0  0  0  0  0  0  0  0  0  0
    3.1454   -1.6733    0.0000 C   0  0  0  0  0  0  0  0  0  0  0  0
    2.9828   -2.4821    0.0000 C   0  0  0  0  0  0  0  0  0  0  0  0
    2.5078   -1.1298    0.0000 C   0  0  0  0  0  0  0  0  0  0  0  0
    5.3279   -1.6733    0.0000 C   0  0  0  0  0  0  0  0  0  0  0  0
    5.9485   -2.2125    0.0000 C   0  0  0  0  0  0  0  0  0  0  0  0
   -1.3180   -0.9158    0.0000 O   0  0  0  0  0  0  0  0  0  0  0  0
   -0.3552   -3.6889    0.0000 O   0  0  0  0  0  0  0  0  0  0  0  0
    0.8003   -2.4821    0.0000 C   0  0  0  0  0  0  0  0  0  0  0  0
    1.5791   -2.2125    0.0000 C   0  0  0  0  0  0  0  0  0  0  0  0
    2.1997   -2.7517    0.0000 C   0  0  0  0  0  0  0  0  0  0  0  0
    1.7375   -1.3994    0.0000 C   0  0  0  0  0  0  0  0  0  0  0  0
    3.6204   -3.0427    0.0000 Cl  0  0  0  0  0  0  0  0  0  0  0  0
    3.9200   -1.4037    0.0000 O   0  0  0  0  0  0  0  0  0  0  0  0
    2.6704   -0.3210    0.0000 O   0  0  0  0  0  0  0  0  0  0  0  0
    4.5448   -1.9429    0.0000 C   0  0  0  0  0  0  0  0  0  0  0  0
    3.4450   -0.0428    0.0000 C   0  0  0  0  0  0  0  0  0  0  0  0
    3.5991    0.7660    0.0000 C   0  0  0  0  0  0  0  0  0  0  0  0
  2  1  1  0  0  0  0
  3  1  1  0  0  0  0
  4  9  1  0  0  0  0
  5  8  1  0  0  0  0
  5  4  1  0  0  0  0
  5 10  1  0  0  0  0
  6  2  1  0  0  0  0
  6  7  1  0  0  0  0
  7  3  1  0  0  0  0
  8  6  1  0  0  0  0
  9  7  1  0  0  0  0
 10  4  1  0  0  0  0
 11  1  1  0  0  0  0
 12  8  1  0  0  0  0
 13  9  1  0  0  0  0
 13 12  2  0  0  0  0
 14 16  1  0  0  0  0
 15 23  1  0  0  0  0
 15 14  2  0  0  0  0
 16 24  2  0  0  0  0
 17 28  1  0  0  0  0
 18 17  3  0  0  0  0
 19  2  2  0  0  0  0
 20  3  2  0  0  0  0
 21 11  2  0  0  0  0
 22 21  1  0  0  0  0
 23 22  2  0  0  0  0
 24 22  1  0  0  0  0
 25 15  1  0  0  0  0
 26 14  1  0  0  0  0
 27 16  1  0  0  0  0
 28 26  1  0  0  0  0
 29 27  1  0  0  0  0
 30 29  1  0  0  0  0
M  END
>  <CdId>
1255

>  <Mol Weight>
424.877

>  <Formula>
C23H21ClN2O4

>  <Click_ID>
CLK017B10 __  __  __

$$$$
CLK017D04 __  __  __
 OpenBabel03171423152D

 27 30  0  0  0  0  0  0  0  0999 V2000
    2.7819   -2.5207    0.0000 C   0  0  0  0  0  0  0  0  0  0  0  0
    2.0532   -1.2970    0.0000 C   0  0  0  0  0  0  0  0  0  0  0  0
    2.0670   -2.1174    0.0000 C   0  0  3  0  0  0  0  0  0  0  0  0
    2.7545   -0.8799    0.0000 C   0  0  0  0  0  0  0  0  0  0  0  0
    3.4923   -2.0945    0.0000 C   0  0  0  0  0  0  0  0  0  0  0  0
    3.4785   -1.2787    0.0000 O   0  0  0  0  0  0  0  0  0  0  0  0
    1.3520   -2.5345    0.0000 C   0  0  0  0  0  0  0  0  0  0  0  0
    1.3383   -0.8937    0.0000 C   0  0  0  0  0  0  0  0  0  0  0  0
    2.7911   -3.3319    0.0000 C   0  0  0  0  0  0  0  0  0  0  0  0
    1.3658   -3.3594    0.0000 C   0  0  0  0  0  0  0  0  0  0  0  0
   -1.4665   -5.0597    0.0000 C   0  0  0  0  0  0  0  0  0  0  0  0
    0.6600   -3.7856    0.0000 C   0  0  0  0  0  0  0  0  0  0  0  0
   -1.4528   -5.8846    0.0000 C   0  0  0  0  0  0  0  0  0  0  0  0
    0.6371   -2.1357    0.0000 C   0  0  0  0  0  0  0  0  0  0  0  0
   -0.0641   -3.3869    0.0000 C   0  0  0  0  0  0  0  0  0  0  0  0
    0.6233   -1.3108    0.0000 O   0  0  0  0  0  0  0  0  0  0  0  0
    2.0761   -3.7673    0.0000 O   0  0  0  0  0  0  0  0  0  0  0  0
   -0.0779   -2.5620    0.0000 C   0  0  0  0  0  0  0  0  0  0  0  0
    2.7498   -0.0459    0.0000 C   0  0  0  0  0  0  0  0  0  0  0  0
    4.2119   -2.5023    0.0000 C   0  0  0  0  0  0  0  0  0  0  0  0
    0.6737   -4.6106    0.0000 Br  0  0  0  0  0  0  0  0  0  0  0  0
   -0.7700   -3.8085    0.0000 O   0  0  0  0  0  0  0  0  0  0  0  0
   -0.7562   -4.6381    0.0000 C   0  0  0  0  0  0  0  0  0  0  0  0
    1.3245   -0.0734    0.0000 C   0  0  0  0  0  0  0  0  0  0  0  0
    3.5107   -3.7444    0.0000 C   0  0  0  0  0  0  0  0  0  0  0  0
    2.0257    0.3437    0.0000 C   0  0  0  0  0  0  0  0  0  0  0  0
    4.2210   -3.3273    0.0000 C   0  0  0  0  0  0  0  0  0  0  0  0
  2  3  1  0  0  0  0
  2  4  2  0  0  0  0
  3  1  1  0  0  0  0
  4  6  1  0  0  0  0
  5  1  2  0  0  0  0
  6  5  1  0  0  0  0
  7  3  1  0  0  0  0
  8  2  1  0  0  0  0
  9  1  1  0  0  0  0
 10  7  2  0  0  0  0
 11 23  1  0  0  0  0
 12 10  1  0  0  0  0
 12 15  2  0  0  0  0
 13 11  3  0  0  0  0
 14  7  1  0  0  0  0
 15 18  1  0  0  0  0
 16  8  2  0  0  0  0
 17  9  2  0  0  0  0
 18 14  2  0  0  0  0
 19  4  1  0  0  0  0
 20  5  1  0  0  0  0
 21 12  1  0  0  0  0
 22 15  1  0  0  0  0
 23 22  1  0  0  0  0
 24  8  1  0  0  0  0
 25  9  1  0  0  0  0
 26 19  1  0  0  0  0
 26 24  1  0  0  0  0
 27 25  1  0  0  0  0
 27 20  1  0  0  0  0
M  END
>  <CdId>
1269

>  <Mol Weight>
427.288

>  <Formula>
C22H19BrO4

>  <Click_ID>
CLK017D04 __  __  __

$$$$
CLK017E03 __  __  __
 OpenBabel03171423152D

 27 30  0  0  0  0  0  0  0  0999 V2000
    2.0672   -2.1176    0.0000 C   0  0  3  0  0  0  0  0  0  0  0  0
    2.7823   -2.5210    0.0000 C   0  0  0  0  0  0  0  0  0  0  0  0
    2.0535   -1.2972    0.0000 C   0  0  0  0  0  0  0  0  0  0  0  0
    2.7548   -0.8800    0.0000 C   0  0  0  0  0  0  0  0  0  0  0  0
    3.4927   -2.0947    0.0000 C   0  0  0  0  0  0  0  0  0  0  0  0
    3.4789   -1.2788    0.0000 O   0  0  0  0  0  0  0  0  0  0  0  0
    0.7884   -2.8785    0.0000 C   0  0  0  0  0  0  0  0  0  0  0  0
    1.3384   -0.8938    0.0000 C   0  0  0  0  0  0  0  0  0  0  0  0
    2.7914   -3.3323    0.0000 C   0  0  0  0  0  0  0  0  0  0  0  0
   -0.6829   -0.4171    0.0000 C   0  0  0  0  0  0  0  0  0  0  0  0
   -1.3979   -0.0184    0.0000 C   0  0  0  0  0  0  0  0  0  0  0  0
    0.0688   -2.4751    0.0000 C   0  0  0  0  0  0  0  0  0  0  0  0
    0.8022   -3.7035    0.0000 C   0  0  0  0  0  0  0  0  0  0  0  0
    0.6234   -1.3109    0.0000 O   0  0  0  0  0  0  0  0  0  0  0  0
    2.0763   -3.7677    0.0000 O   0  0  0  0  0  0  0  0  0  0  0  0
   -0.6417   -2.8923    0.0000 C   0  0  0  0  0  0  0  0  0  0  0  0
    0.0963   -4.1252    0.0000 C   0  0  0  0  0  0  0  0  0  0  0  0
    4.2123   -2.5026    0.0000 C   0  0  0  0  0  0  0  0  0  0  0  0
    2.7501   -0.0459    0.0000 C   0  0  0  0  0  0  0  0  0  0  0  0
   -0.6279   -3.7264    0.0000 C   0  0  0  0  0  0  0  0  0  0  0  0
    0.1009   -4.9549    0.0000 Cl  0  0  0  0  0  0  0  0  0  0  0  0
    0.0596   -1.6501    0.0000 O   0  0  0  0  0  0  0  0  0  0  0  0
   -0.6692   -1.2422    0.0000 C   0  0  0  0  0  0  0  0  0  0  0  0
    1.3247   -0.0734    0.0000 C   0  0  0  0  0  0  0  0  0  0  0  0
    3.5110   -3.7448    0.0000 C   0  0  0  0  0  0  0  0  0  0  0  0
    2.0260    0.3438    0.0000 C   0  0  0  0  0  0  0  0  0  0  0  0
    4.2215   -3.3277    0.0000 C   0  0  0  0  0  0  0  0  0  0  0  0
  2  1  1  0  0  0  0
  3  1  1  0  0  0  0
  4  3  2  0  0  0  0
  5  2  2  0  0  0  0
  5  6  1  0  0  0  0
  6  4  1  0  0  0  0
  7  1  1  0  0  0  0
  8  3  1  0  0  0  0
  9  2  1  0  0  0  0
 10 23  1  0  0  0  0
 11 10  3  0  0  0  0
 12  7  1  0  0  0  0
 13  7  2  0  0  0  0
 14  8  2  0  0  0  0
 15  9  2  0  0  0  0
 16 12  2  0  0  0  0
 17 13  1  0  0  0  0
 18  5  1  0  0  0  0
 19  4  1  0  0  0  0
 20 17  2  0  0  0  0
 20 16  1  0  0  0  0
 21 17  1  0  0  0  0
 22 12  1  0  0  0  0
 23 22  1  0  0  0  0
 24  8  1  0  0  0  0
 25  9  1  0  0  0  0
 26 24  1  0  0  0  0
 26 19  1  0  0  0  0
 27 25  1  0  0  0  0
 27 18  1  0  0  0  0
M  END
>  <CdId>
1278

>  <Mol Weight>
382.837

>  <Formula>
C22H19ClO4

>  <Click_ID>
CLK017E03 __  __  __

$$$$
CLK017F02 __  __  __
 OpenBabel03171423152D

 30 33  0  0  0  0  0  0  0  0999 V2000
    2.7817   -2.5205    0.0000 C   0  0  0  0  0  0  0  0  0  0  0  0
    2.0531   -1.2969    0.0000 C   0  0  0  0  0  0  0  0  0  0  0  0
    2.0668   -2.1172    0.0000 C   0  0  3  0  0  0  0  0  0  0  0  0
    2.7542   -0.8799    0.0000 C   0  0  0  0  0  0  0  0  0  0  0  0
    3.4920   -2.0943    0.0000 C   0  0  0  0  0  0  0  0  0  0  0  0
    3.4783   -1.2786    0.0000 O   0  0  0  0  0  0  0  0  0  0  0  0
    1.3519   -2.5343    0.0000 C   0  0  0  0  0  0  0  0  0  0  0  0
   -0.0641   -3.3866    0.0000 C   0  0  0  0  0  0  0  0  0  0  0  0
    0.6599   -3.7853    0.0000 C   0  0  0  0  0  0  0  0  0  0  0  0
   -0.0779   -2.5618    0.0000 C   0  0  0  0  0  0  0  0  0  0  0  0
    2.7909   -3.3317    0.0000 C   0  0  0  0  0  0  0  0  0  0  0  0
    1.3382   -0.8936    0.0000 C   0  0  0  0  0  0  0  0  0  0  0  0
    1.3657   -3.3592    0.0000 C   0  0  0  0  0  0  0  0  0  0  0  0
    0.6370   -2.1356    0.0000 C   0  0  0  0  0  0  0  0  0  0  0  0
   -1.4664   -5.0593    0.0000 C   0  0  0  0  0  0  0  0  0  0  0  0
   -1.4527   -5.8888    0.0000 C   0  0  0  0  0  0  0  0  0  0  0  0
    2.0760   -3.7670    0.0000 O   0  0  0  0  0  0  0  0  0  0  0  0
    0.6233   -1.3107    0.0000 O   0  0  0  0  0  0  0  0  0  0  0  0
    0.6737   -4.6102    0.0000 Br  0  0  0  0  0  0  0  0  0  0  0  0
   -0.7699   -3.8128    0.0000 O   0  0  0  0  0  0  0  0  0  0  0  0
    2.7496   -0.0459    0.0000 C   0  0  0  0  0  0  0  0  0  0  0  0
    4.2115   -2.5022    0.0000 C   0  0  0  0  0  0  0  0  0  0  0  0
   -0.7928   -2.1585    0.0000 O   0  0  0  0  0  0  0  0  0  0  0  0
   -0.7561   -4.6377    0.0000 C   0  0  0  0  0  0  0  0  0  0  0  0
    3.5104   -3.7441    0.0000 C   0  0  0  0  0  0  0  0  0  0  0  0
    1.3244   -0.0734    0.0000 C   0  0  0  0  0  0  0  0  0  0  0  0
    4.2207   -3.3270    0.0000 C   0  0  0  0  0  0  0  0  0  0  0  0
    2.0256    0.3437    0.0000 C   0  0  0  0  0  0  0  0  0  0  0  0
   -0.8065   -1.3336    0.0000 C   0  0  0  0  0  0  0  0  0  0  0  0
   -1.5352   -0.9257    0.0000 C   0  0  0  0  0  0  0  0  0  0  0  0
  2  3  1  0  0  0  0
  2  4  2  0  0  0  0
  3  1  1  0  0  0  0
  4  6  1  0  0  0  0
  5  1  2  0  0  0  0
  6  5  1  0  0  0  0
  7  3  1  0  0  0  0
  8 10  1  0  0  0  0
  9 13  1  0  0  0  0
  9  8  2  0  0  0  0
 10 14  2  0  0  0  0
 11  1  1  0  0  0  0
 12  2  1  0  0  0  0
 13  7  2  0  0  0  0
 14  7  1  0  0  0  0
 15 24  1  0  0  0  0
 16 15  3  0  0  0  0
 17 11  2  0  0  0  0
 18 12  2  0  0  0  0
 19  9  1  0  0  0  0
 20  8  1  0  0  0  0
 21  4  1  0  0  0  0
 22  5  1  0  0  0  0
 23 10  1  0  0  0  0
 24 20  1  0  0  0  0
 25 11  1  0  0  0  0
 26 12  1  0  0  0  0
 27 25  1  0  0  0  0
 27 22  1  0  0  0  0
 28 21  1  0  0  0  0
 28 26  1  0  0  0  0
 29 23  1  0  0  0  0
 30 29  1  0  0  0  0
M  END
>  <CdId>
1287

>  <Mol Weight>
471.34

>  <Formula>
C24H23BrO5

>  <Click_ID>
CLK017F02 __  __  __

$$$$
CLK018C03 __  __  __
 OpenBabel03171423152D

 23 24  0  0  0  0  0  0  0  0999 V2000
    2.5005   -2.9581    0.0000 C   0  0  0  0  0  0  0  0  0  0  0  0
    1.9513   -2.3507    0.0000 C   0  0  0  0  0  0  0  0  0  0  0  0
    0.8404   -1.1400    0.0000 C   0  0  0  0  0  0  0  0  0  0  0  0
    1.6475   -0.9611    0.0000 C   0  0  0  0  0  0  0  0  0  0  0  0
    0.5908   -1.9263    0.0000 C   0  0  0  0  0  0  0  0  0  0  0  0
    3.3118   -2.7833    0.0000 N   0  0  0  0  0  0  0  0  0  0  0  0
    2.2009   -1.5644    0.0000 C   0  0  0  0  0  0  0  0  0  0  0  0
    1.1525   -2.5337    0.0000 C   0  0  0  0  0  0  0  0  0  0  0  0
    6.0452   -3.6238    0.0000 C   0  0  0  0  0  0  0  0  0  0  0  0
    6.6068   -4.2312    0.0000 C   0  0  0  0  0  0  0  0  0  0  0  0
    2.2633   -3.7444    0.0000 O   0  0  0  0  0  0  0  0  0  0  0  0
    3.8734   -3.3867    0.0000 C   0  0  0  0  0  0  0  0  0  0  0  0
    5.2464   -3.8110    0.0000 C   0  0  0  0  0  0  0  0  0  0  0  0
    4.6847   -3.2119    0.0000 C   0  0  0  0  0  0  0  0  0  0  0  0
    0.2871   -0.5284    0.0000 O   0  0  0  0  0  0  0  0  0  0  0  0
    1.8972   -0.1747    0.0000 O   0  0  0  0  0  0  0  0  0  0  0  0
   -0.2080   -2.1094    0.0000 O   0  0  0  0  0  0  0  0  0  0  0  0
    4.1855   -4.7929    0.0000 C   0  0  0  0  0  0  0  0  0  0  0  0
    3.6238   -4.1855    0.0000 C   0  0  0  0  0  0  0  0  0  0  0  0
    4.9926   -4.6098    0.0000 C   0  0  0  0  0  0  0  0  0  0  0  0
    0.5284    0.2579    0.0000 C   0  0  0  0  0  0  0  0  0  0  0  0
    2.7002    0.0000    0.0000 C   0  0  0  0  0  0  0  0  0  0  0  0
   -0.7697   -1.5020    0.0000 C   0  0  0  0  0  0  0  0  0  0  0  0
  2  1  1  0  0  0  0
  3  5  1  0  0  0  0
  3  4  2  0  0  0  0
  4  7  1  0  0  0  0
  5  8  2  0  0  0  0
  6  1  1  0  0  0  0
  7  2  2  0  0  0  0
  8  2  1  0  0  0  0
  9 13  1  0  0  0  0
 10  9  3  0  0  0  0
 11  1  2  0  0  0  0
 12  6  1  0  0  0  0
 13 14  1  0  0  0  0
 13 20  2  0  0  0  0
 14 12  2  0  0  0  0
 15  3  1  0  0  0  0
 16  4  1  0  0  0  0
 17  5  1  0  0  0  0
 18 19  2  0  0  0  0
 19 12  1  0  0  0  0
 20 18  1  0  0  0  0
 21 15  1  0  0  0  0
 22 16  1  0  0  0  0
 23 17  1  0  0  0  0
M  END
>  <CdId>
1338

>  <Mol Weight>
311.3319

>  <Formula>
C18H17NO4

>  <Click_ID>
CLK018C03 __  __  __

$$$$
CLK019B05 __  __  __
 OpenBabel03171423152D

 16 16  0  0  0  0  0  0  0  0999 V2000
   -0.5625   -1.0625    0.0000 C   0  0  0  0  0  0  0  0  0  0  0  0
   -0.1500    0.2125    0.0000 C   0  0  0  0  0  0  0  0  0  0  0  0
   -0.5625   -1.8875    0.0000 N   0  0  0  0  0  0  0  0  0  0  0  0
    0.3375    0.8833    0.0000 C   0  0  0  0  0  0  0  0  0  0  0  0
   -1.2250   -0.5750    0.0000 O   0  0  0  0  0  0  0  0  0  0  0  0
   -0.9750    0.2125    0.0000 C   0  0  0  0  0  0  0  0  0  0  0  0
    0.1042   -0.5750    0.0000 O   0  0  0  0  0  0  0  0  0  0  0  0
   -1.2750   -2.2917    0.0000 C   0  0  0  0  0  0  0  0  0  0  0  0
   -1.9875   -1.8792    0.0000 C   0  0  0  0  0  0  0  0  0  0  0  0
   -2.7000   -2.2917    0.0000 C   0  0  0  0  0  0  0  0  0  0  0  0
   -3.4208   -1.8792    0.0000 Cl  0  0  0  0  0  0  0  0  0  0  0  0
   -1.9833   -3.5292    0.0000 C   0  0  0  0  0  0  0  0  0  0  0  0
   -1.2750   -3.1167    0.0000 C   0  0  0  0  0  0  0  0  0  0  0  0
   -1.7833    0.4333    0.0000 C   0  0  0  0  0  0  0  0  0  0  0  0
   -0.9833    1.0375    0.0000 C   0  0  0  0  0  0  0  0  0  0  0  0
   -2.7083   -3.1167    0.0000 C   0  0  0  0  0  0  0  0  0  0  0  0
  2  6  1  0  0  0  0
  3  1  1  0  0  0  0
  4  2  3  0  0  0  0
  5  1  1  0  0  0  0
  6  5  1  0  0  0  0
  7  1  2  0  0  0  0
  8  3  1  0  0  0  0
  9  8  2  0  0  0  0
 10  9  1  0  0  0  0
 11 10  1  0  0  0  0
 12 13  2  0  0  0  0
 13  8  1  0  0  0  0
 14  6  1  0  0  0  0
 15  6  1  0  0  0  0
 16 12  1  0  0  0  0
 16 10  2  0  0  0  0
M  END
>  <CdId>
1410

>  <Mol Weight>
237.682

>  <Formula>
C12H12ClNO2

>  <Click_ID>
CLK019B05 __  __  __

$$$$
CLK019E05 __  __  __
 OpenBabel03171423152D

 17 18  0  0  0  0  0  0  0  0999 V2000
    6.3875   -3.5542    0.0000 N   0  0  0  0  0  0  0  0  0  0  0  0
    4.9625   -3.5625    0.0000 C   0  0  0  0  0  0  0  0  0  0  0  0
    5.6750   -3.1500    0.0000 C   0  0  0  0  0  0  0  0  0  0  0  0
    4.9625   -4.3917    0.0000 N   0  0  0  0  0  0  0  0  0  0  0  0
    6.3917   -4.3792    0.0000 C   0  0  0  0  0  0  0  0  0  0  0  0
    5.6792   -4.8000    0.0000 N   0  0  0  0  0  0  0  0  0  0  0  0
    7.8167   -6.0375    0.0000 C   0  0  0  0  0  0  0  0  0  0  0  0
    8.5375   -6.4500    0.0000 C   0  0  0  0  0  0  0  0  0  0  0  0
    4.2500   -3.1542    0.0000 C   0  0  0  0  0  0  0  0  0  0  0  0
    7.1042   -4.8000    0.0000 S   0  0  0  0  0  0  0  0  0  0  0  0
    5.6667   -2.3250    0.0000 O   0  0  0  0  0  0  0  0  0  0  0  0
    7.1042   -5.6250    0.0000 C   0  0  0  0  0  0  0  0  0  0  0  0
    3.5292   -3.5667    0.0000 C   0  0  0  0  0  0  0  0  0  0  0  0
    4.2500   -2.3250    0.0000 C   0  0  0  0  0  0  0  0  0  0  0  0
    2.8167   -3.1542    0.0000 C   0  0  0  0  0  0  0  0  0  0  0  0
    3.5292   -1.9125    0.0000 C   0  0  0  0  0  0  0  0  0  0  0  0
    2.8167   -2.3250    0.0000 C   0  0  0  0  0  0  0  0  0  0  0  0
  2  3  1  0  0  0  0
  2  4  2  0  0  0  0
  3  1  2  0  0  0  0
  4  6  1  0  0  0  0
  5  1  1  0  0  0  0
  6  5  2  0  0  0  0
  7 12  1  0  0  0  0
  8  7  3  0  0  0  0
  9  2  1  0  0  0  0
 10  5  1  0  0  0  0
 11  3  1  0  0  0  0
 12 10  1  0  0  0  0
 13  9  2  0  0  0  0
 14  9  1  0  0  0  0
 15 13  1  0  0  0  0
 16 14  2  0  0  0  0
 17 16  1  0  0  0  0
 17 15  2  0  0  0  0
M  END
>  <CdId>
1440

>  <Mol Weight>
243.284

>  <Formula>
C12H9N3OS

>  <Click_ID>
CLK019E05 __  __  __

$$$$
CLK019F03 __  __  __
 OpenBabel03171423152D

 27 30  0  0  0  0  0  0  0  0999 V2000
    6.1354   -0.1676    0.0000 C   0  0  0  0  0  0  0  0  0  0  0  0
    5.3062   -0.1676    0.0000 C   0  0  3  0  0  0  0  0  0  0  0  0
    6.5500   -0.8837    0.0000 C   0  0  0  0  0  0  0  0  0  0  0  0
    4.8999   -0.8837    0.0000 C   0  0  0  0  0  0  0  0  0  0  0  0
    5.3062   -1.5998    0.0000 C   0  0  0  0  0  0  0  0  0  0  0  0
    4.8916    0.5528    0.0000 C   0  0  0  0  0  0  0  0  0  0  0  0
    6.1354   -1.5998    0.0000 O   0  0  0  0  0  0  0  0  0  0  0  0
    4.0749   -0.8837    0.0000 C   0  0  0  0  0  0  0  0  0  0  0  0
    4.8999   -2.3160    0.0000 C   0  0  0  0  0  0  0  0  0  0  0  0
    6.5500    0.5486    0.0000 C   0  0  0  0  0  0  0  0  0  0  0  0
    3.6603   -1.5998    0.0000 C   0  0  0  0  0  0  0  0  0  0  0  0
    4.0749   -2.3160    0.0000 C   0  0  0  0  0  0  0  0  0  0  0  0
    6.9647    1.2647    0.0000 N   0  0  0  0  0  0  0  0  0  0  0  0
    7.3541    1.9725    0.0000 C   0  0  0  0  0  0  0  0  0  0  0  0
    8.1708    1.9809    0.0000 C   0  0  0  0  0  0  0  0  0  0  0  0
    5.3062    1.2647    0.0000 C   0  0  0  0  0  0  0  0  0  0  0  0
    4.0707    0.5528    0.0000 C   0  0  0  0  0  0  0  0  0  0  0  0
    2.8520   -1.7757    0.0000 O   0  0  0  0  0  0  0  0  0  0  0  0
    3.5221   -2.9316    0.0000 O   0  0  0  0  0  0  0  0  0  0  0  0
    2.7683   -2.6007    0.0000 C   0  0  0  0  0  0  0  0  0  0  0  0
    7.3793   -0.8920    0.0000 N   0  0  0  0  0  0  0  0  0  0  0  0
    4.8916    1.9809    0.0000 C   0  0  0  0  0  0  0  0  0  0  0  0
    3.6561    1.2690    0.0000 C   0  0  0  0  0  0  0  0  0  0  0  0
    4.0624    1.9851    0.0000 C   0  0  0  0  0  0  0  0  0  0  0  0
    2.8311    1.2690    0.0000 Br  0  0  0  0  0  0  0  0  0  0  0  0
    6.1229    1.2647    0.0000 O   0  0  0  0  0  0  0  0  0  0  0  0
    6.5375    1.9725    0.0000 C   0  0  0  0  0  0  0  0  0  0  0  0
  2  1  1  0  0  0  0
  3  1  2  0  0  0  0
  4  2  1  0  0  0  0
  4  5  2  0  0  0  0
  5  7  1  0  0  0  0
  6  2  1  0  0  0  0
  7  3  1  0  0  0  0
  8  4  1  0  0  0  0
  9  5  1  0  0  0  0
 10  1  1  0  0  0  0
 11  8  2  0  0  0  0
 11 12  1  0  0  0  0
 12  9  2  0  0  0  0
 13 10  3  0  0  0  0
 14 27  1  0  0  0  0
 15 14  3  0  0  0  0
 16  6  2  0  0  0  0
 17  6  1  0  0  0  0
 18 11  1  0  0  0  0
 19 12  1  0  0  0  0
 20 18  1  0  0  0  0
 20 19  1  0  0  0  0
 21  3  1  0  0  0  0
 22 16  1  0  0  0  0
 22 24  2  0  0  0  0
 23 17  2  0  0  0  0
 24 23  1  0  0  0  0
 25 23  1  0  0  0  0
 26 16  1  0  0  0  0
 27 26  1  0  0  0  0
M  END
>  <CdId>
1448

>  <Mol Weight>
425.232

>  <Formula>
C20H13BrN2O4

>  <Click_ID>
CLK019F03 __  __  __

$$$$
CLK019F05 __  __  __
 OpenBabel03171423152D

 25 27  0  0  0  0  0  0  0  0999 V2000
    1.4500   -1.4542    0.0000 C   0  0  0  0  0  0  0  0  0  0  0  0
    1.4500   -0.6250    0.0000 C   0  0  0  0  0  0  0  0  0  0  0  0
    2.2417   -1.7125    0.0000 N   0  0  0  0  0  0  0  0  0  0  0  0
    0.7292   -1.8667    0.0000 N   0  0  0  0  0  0  0  0  0  0  0  0
    0.0167   -0.6250    0.0000 N   0  0  0  0  0  0  0  0  0  0  0  0
    2.2417   -0.3667    0.0000 N   0  0  0  0  0  0  0  0  0  0  0  0
    0.0167   -1.4542    0.0000 C   0  0  0  0  0  0  0  0  0  0  0  0
    0.7292   -0.2042    0.0000 C   0  0  0  0  0  0  0  0  0  0  0  0
    2.7292   -1.0417    0.0000 C   0  0  0  0  0  0  0  0  0  0  0  0
    2.4917    0.4208    0.0000 C   0  0  0  0  0  0  0  0  0  0  0  0
    4.7917   -1.7542    0.0000 C   0  0  0  0  0  0  0  0  0  0  0  0
   -0.6958   -1.8667    0.0000 O   0  0  0  0  0  0  0  0  0  0  0  0
    0.7292    0.6208    0.0000 O   0  0  0  0  0  0  0  0  0  0  0  0
    5.2042   -2.4667    0.0000 C   0  0  0  0  0  0  0  0  0  0  0  0
    3.5542   -1.0417    0.0000 O   0  0  0  0  0  0  0  0  0  0  0  0
    0.7292   -2.6917    0.0000 C   0  0  0  0  0  0  0  0  0  0  0  0
   -0.6958   -0.2125    0.0000 C   0  0  0  0  0  0  0  0  0  0  0  0
    3.3042    0.5958    0.0000 C   0  0  0  0  0  0  0  0  0  0  0  0
    4.9125    0.9375    0.0000 C   0  0  0  0  0  0  0  0  0  0  0  0
    5.7167    1.1083    0.0000 Cl  0  0  0  0  0  0  0  0  0  0  0  0
    3.8542   -0.0167    0.0000 C   0  0  0  0  0  0  0  0  0  0  0  0
    3.5542    1.3750    0.0000 C   0  0  0  0  0  0  0  0  0  0  0  0
    4.3542    1.5500    0.0000 C   0  0  0  0  0  0  0  0  0  0  0  0
    4.6542    0.1500    0.0000 C   0  0  0  0  0  0  0  0  0  0  0  0
    3.9667   -1.7542    0.0000 C   0  0  0  0  0  0  0  0  0  0  0  0
  2  1  2  0  0  0  0
  3  1  1  0  0  0  0
  4  1  1  0  0  0  0
  5  7  1  0  0  0  0
  6  2  1  0  0  0  0
  7  4  1  0  0  0  0
  8  2  1  0  0  0  0
  8  5  1  0  0  0  0
  9  3  2  0  0  0  0
  9  6  1  0  0  0  0
 10  6  1  0  0  0  0
 11 25  1  0  0  0  0
 12  7  2  0  0  0  0
 13  8  2  0  0  0  0
 14 11  3  0  0  0  0
 15  9  1  0  0  0  0
 16  4  1  0  0  0  0
 17  5  1  0  0  0  0
 18 10  1  0  0  0  0
 19 23  1  0  0  0  0
 20 19  1  0  0  0  0
 21 18  2  0  0  0  0
 22 18  1  0  0  0  0
 23 22  2  0  0  0  0
 24 21  1  0  0  0  0
 24 19  2  0  0  0  0
 25 15  1  0  0  0  0
M  END
>  <CdId>
1450

>  <Mol Weight>
358.779

>  <Formula>
C17H15ClN4O3

>  <Click_ID>
CLK019F05 __  __  __

$$$$
CLK020D06 __  __  __
 OpenBabel03171423152D

 25 27  0  0  0  0  0  0  0  0999 V2000
    5.5321    3.2816    0.0000 C   0  0  0  0  0  0  0  0  0  0  0  0
    4.8171    3.6941    0.0000 C   0  0  0  0  0  0  0  0  0  0  0  0
    5.6146    2.4566    0.0000 N   0  0  0  0  0  0  0  0  0  0  0  0
    6.2837    3.6116    0.0000 N   0  0  0  0  0  0  0  0  0  0  0  0
    4.1021    3.2816    0.0000 C   0  0  0  0  0  0  0  0  0  0  0  0
    4.1021    2.4566    0.0000 C   0  0  0  0  0  0  0  0  0  0  0  0
    4.8171    4.5054    0.0000 C   0  0  0  0  0  0  0  0  0  0  0  0
    6.4259    2.2871    0.0000 C   0  0  0  0  0  0  0  0  0  0  0  0
    6.8384    2.9975    0.0000 C   0  0  0  0  0  0  0  0  0  0  0  0
    4.8171    5.3304    0.0000 N   0  0  0  0  0  0  0  0  0  0  0  0
    1.2421    2.4566    0.0000 C   0  0  0  0  0  0  0  0  0  0  0  0
    0.5271    2.8691    0.0000 C   0  0  0  0  0  0  0  0  0  0  0  0
    3.3871    2.0441    0.0000 C   0  0  0  0  0  0  0  0  0  0  0  0
    4.8171    2.0441    0.0000 C   0  0  0  0  0  0  0  0  0  0  0  0
    3.3871    1.2191    0.0000 C   0  0  0  0  0  0  0  0  0  0  0  0
    4.8171    1.2191    0.0000 C   0  0  0  0  0  0  0  0  0  0  0  0
    4.1021    0.8066    0.0000 C   0  0  0  0  0  0  0  0  0  0  0  0
    2.6721    2.4566    0.0000 O   0  0  0  0  0  0  0  0  0  0  0  0
    1.9571    2.0441    0.0000 C   0  0  0  0  0  0  0  0  0  0  0  0
    5.5321    0.8066    0.0000 O   0  0  0  0  0  0  0  0  0  0  0  0
    6.8384    1.5766    0.0000 C   0  0  0  0  0  0  0  0  0  0  0  0
    7.6634    2.9975    0.0000 C   0  0  0  0  0  0  0  0  0  0  0  0
    5.5321   -0.0184    0.0000 C   0  0  0  0  0  0  0  0  0  0  0  0
    8.0759    2.2871    0.0000 C   0  0  0  0  0  0  0  0  0  0  0  0
    7.6634    1.5766    0.0000 C   0  0  0  0  0  0  0  0  0  0  0  0
  2  1  1  0  0  0  0
  3  1  2  0  0  0  0
  4  1  1  0  0  0  0
  5  2  2  0  0  0  0
  6  5  1  0  0  0  0
  7  2  1  0  0  0  0
  8  3  1  0  0  0  0
  8  9  2  0  0  0  0
  9  4  1  0  0  0  0
 10  7  3  0  0  0  0
 11 19  1  0  0  0  0
 12 11  3  0  0  0  0
 13  6  2  0  0  0  0
 14  6  1  0  0  0  0
 15 13  1  0  0  0  0
 15 17  2  0  0  0  0
 16 14  2  0  0  0  0
 17 16  1  0  0  0  0
 18 13  1  0  0  0  0
 19 18  1  0  0  0  0
 20 16  1  0  0  0  0
 21  8  1  0  0  0  0
 22  9  1  0  0  0  0
 23 20  1  0  0  0  0
 24 22  2  0  0  0  0
 24 25  1  0  0  0  0
 25 21  2  0  0  0  0
M  END
>  <CdId>
1511

>  <Mol Weight>
329.352

>  <Formula>
C20H15N3O2

>  <Click_ID>
CLK020D06 __  __  __

$$$$
CLK020G06 __  __  __
 OpenBabel03171423152D

 18 18  0  0  0  0  0  0  0  0999 V2000
    5.5454    1.7277    0.0000 C   0  0  0  0  0  0  0  0  0  0  0  0
    6.3290    1.9752    0.0000 C   0  0  0  0  0  0  0  0  0  0  0  0
    4.8854    2.2089    0.0000 C   0  0  0  0  0  0  0  0  0  0  0  0
    5.2979    0.9349    0.0000 C   0  0  0  0  0  0  0  0  0  0  0  0
    4.4730    0.9349    0.0000 S   0  0  0  0  0  0  0  0  0  0  0  0
    4.2117    1.7277    0.0000 C   0  0  0  0  0  0  0  0  0  0  0  0
    6.9477    1.4253    0.0000 N   0  0  0  0  0  0  0  0  0  0  0  0
    8.1805    0.9853    0.0000 C   0  0  0  0  0  0  0  0  0  0  0  0
    8.6342    0.2979    0.0000 C   0  0  0  0  0  0  0  0  0  0  0  0
    7.7314    1.6773    0.0000 C   0  0  0  0  0  0  0  0  0  0  0  0
    6.5078    2.7864    0.0000 O   0  0  0  0  0  0  0  0  0  0  0  0
    4.8854    3.0339    0.0000 C   0  0  0  0  0  0  0  0  0  0  0  0
    3.4281    1.9752    0.0000 C   0  0  0  0  0  0  0  0  0  0  0  0
    8.4601    2.0714    0.0000 C   0  0  0  0  0  0  0  0  0  0  0  0
    7.4106    2.4427    0.0000 C   0  0  0  0  0  0  0  0  0  0  0  0
    4.1705    3.4463    0.0000 C   0  0  0  0  0  0  0  0  0  0  0  0
    7.9055    3.1026    0.0000 C   0  0  0  0  0  0  0  0  0  0  0  0
    9.1613    1.6315    0.0000 C   0  0  0  0  0  0  0  0  0  0  0  0
  2  1  1  0  0  0  0
  3  1  1  0  0  0  0
  4  1  2  0  0  0  0
  5  4  1  0  0  0  0
  5  6  1  0  0  0  0
  6  3  2  0  0  0  0
  7  2  1  0  0  0  0
  8 10  1  0  0  0  0
  9  8  3  0  0  0  0
 10  7  1  0  0  0  0
 11  2  2  0  0  0  0
 12  3  1  0  0  0  0
 13  6  1  0  0  0  0
 14 10  1  0  0  0  0
 15 10  1  0  0  0  0
 16 12  1  0  0  0  0
 17 15  1  0  0  0  0
 18 14  1  0  0  0  0
M  END
>  <CdId>
1541

>  <Mol Weight>
263.398

>  <Formula>
C15H21NOS

>  <Click_ID>
CLK020G06 __  __  __

$$$$
CLK020H07 __  __  __
 OpenBabel03171423152D

 20 21  0  0  0  0  0  0  0  0999 V2000
    5.7440    1.2264    0.0000 C   0  0  0  0  0  0  0  0  0  0  0  0
    6.4573    1.6477    0.0000 C   0  0  0  0  0  0  0  0  0  0  0  0
    3.6041   -0.8427    0.0000 C   0  0  0  0  0  0  0  0  0  0  0  0
    4.3216   -1.2514    0.0000 N   0  0  0  0  0  0  0  0  0  0  0  0
    5.0349   -0.8384    0.0000 C   0  0  0  0  0  0  0  0  0  0  0  0
    3.5958   -0.0167    0.0000 O   0  0  0  0  0  0  0  0  0  0  0  0
    5.7482    0.4005    0.0000 C   0  0  0  0  0  0  0  0  0  0  0  0
    2.1691   -0.8427    0.0000 O   0  0  0  0  0  0  0  0  0  0  0  0
    2.8908   -1.2556    0.0000 C   0  0  0  0  0  0  0  0  0  0  0  0
    5.0349   -0.0125    0.0000 C   0  0  0  0  0  0  0  0  0  0  0  0
    1.4558   -1.2639    0.0000 C   0  0  0  0  0  0  0  0  0  0  0  0
    0.0292   -2.0941    0.0000 C   0  0  0  0  0  0  0  0  0  0  0  0
   -0.6883   -2.5070    0.0000 Cl  0  0  0  0  0  0  0  0  0  0  0  0
    1.4558   -2.0941    0.0000 C   0  0  0  0  0  0  0  0  0  0  0  0
    0.7425   -0.8510    0.0000 C   0  0  0  0  0  0  0  0  0  0  0  0
    0.7425   -2.5070    0.0000 C   0  0  0  0  0  0  0  0  0  0  0  0
    0.0292   -1.2639    0.0000 C   0  0  0  0  0  0  0  0  0  0  0  0
    6.4615   -0.8384    0.0000 C   0  0  0  0  0  0  0  0  0  0  0  0
    5.7482   -1.2514    0.0000 C   0  0  0  0  0  0  0  0  0  0  0  0
    6.4698   -0.0125    0.0000 C   0  0  0  0  0  0  0  0  0  0  0  0
  2  1  3  0  0  0  0
  3  4  1  0  0  0  0
  4  5  1  0  0  0  0
  5 10  1  0  0  0  0
  6  3  2  0  0  0  0
  7  1  1  0  0  0  0
  8  9  1  0  0  0  0
  9  3  1  0  0  0  0
 10  7  2  0  0  0  0
 11  8  1  0  0  0  0
 12 17  2  0  0  0  0
 13 12  1  0  0  0  0
 14 11  1  0  0  0  0
 15 11  2  0  0  0  0
 16 14  2  0  0  0  0
 16 12  1  0  0  0  0
 17 15  1  0  0  0  0
 18 20  2  0  0  0  0
 19 18  1  0  0  0  0
 19  5  2  0  0  0  0
 20  7  1  0  0  0  0
M  END
>  <CdId>
1552

>  <Mol Weight>
285.725

>  <Formula>
C16H12ClNO2

>  <Click_ID>
CLK020H07 __  __  __

$$$$
CLK020H11 __  __  __
 OpenBabel03171423152D

 18 19  0  0  0  0  0  0  0  0999 V2000
    2.3281   -0.4290    0.0000 C   0  0  0  0  0  0  0  0  0  0  0  0
   -0.5830    0.2999    0.0000 C   0  0  0  0  0  0  0  0  0  0  0  0
   -0.1707    1.0203    0.0000 C   0  0  0  0  0  0  0  0  0  0  0  0
    1.8908   -1.1287    0.0000 N   0  0  0  0  0  0  0  0  0  0  0  0
    1.9366    0.2957    0.0000 O   0  0  0  0  0  0  0  0  0  0  0  0
    1.0662   -1.1287    0.0000 C   0  0  0  0  0  0  0  0  0  0  0  0
    3.1528   -0.4540    0.0000 C   0  0  0  0  0  0  0  0  0  0  0  0
   -0.1707   -0.4123    0.0000 C   0  0  0  0  0  0  0  0  0  0  0  0
    0.6539   -0.4123    0.0000 C   0  0  0  0  0  0  0  0  0  0  0  0
    3.5901    0.2457    0.0000 C   0  0  0  0  0  0  0  0  0  0  0  0
   -0.1624   -1.8409    0.0000 C   0  0  0  0  0  0  0  0  0  0  0  0
    0.6539   -1.8409    0.0000 C   0  0  0  0  0  0  0  0  0  0  0  0
   -0.5830   -1.1287    0.0000 C   0  0  0  0  0  0  0  0  0  0  0  0
    4.4105    0.2207    0.0000 C   0  0  0  0  0  0  0  0  0  0  0  0
    3.1902    0.9704    0.0000 C   0  0  0  0  0  0  0  0  0  0  0  0
    3.6275    1.6700    0.0000 C   0  0  0  0  0  0  0  0  0  0  0  0
    4.8395    0.9204    0.0000 C   0  0  0  0  0  0  0  0  0  0  0  0
    4.4522    1.6450    0.0000 C   0  0  0  0  0  0  0  0  0  0  0  0
  2  8  1  0  0  0  0
  3  2  3  0  0  0  0
  4  1  1  0  0  0  0
  5  1  2  0  0  0  0
  6  4  1  0  0  0  0
  7  1  1  0  0  0  0
  8  9  1  0  0  0  0
  8 13  2  0  0  0  0
  9  6  2  0  0  0  0
 10  7  1  0  0  0  0
 11 12  2  0  0  0  0
 12  6  1  0  0  0  0
 13 11  1  0  0  0  0
 14 10  2  0  0  0  0
 15 10  1  0  0  0  0
 16 15  2  0  0  0  0
 17 14  1  0  0  0  0
 17 18  2  0  0  0  0
 18 16  1  0  0  0  0
M  END
>  <CdId>
1556

>  <Mol Weight>
235.2805

>  <Formula>
C16H13NO

>  <Click_ID>
CLK020H11 __  __  __

$$$$
CLK021C09 __  __  __
 OpenBabel03171423152D

 20 22  0  0  0  0  0  0  0  0999 V2000
    0.4719    1.5254    0.0000 C   0  0  0  0  0  0  0  0  0  0  0  0
    0.5634    2.3453    0.0000 N   0  0  0  0  0  0  0  0  0  0  0  0
    1.2277    1.1910    0.0000 N   0  0  0  0  0  0  0  0  0  0  0  0
    1.7774    1.8003    0.0000 C   0  0  0  0  0  0  0  0  0  0  0  0
    1.3651    2.5149    0.0000 C   0  0  0  0  0  0  0  0  0  0  0  0
    2.1850    0.1328    0.0000 C   0  0  0  0  0  0  0  0  0  0  0  0
    2.9684   -0.1283    0.0000 C   0  0  0  0  0  0  0  0  0  0  0  0
   -0.2427    1.1131    0.0000 C   0  0  0  0  0  0  0  0  0  0  0  0
    1.4017    0.3802    0.0000 C   0  0  0  0  0  0  0  0  0  0  0  0
   -0.9573    1.5254    0.0000 C   0  0  0  0  0  0  0  0  0  0  0  0
   -1.6720    1.1131    0.0000 C   0  0  0  0  0  0  0  0  0  0  0  0
    2.6019    1.8003    0.0000 C   0  0  0  0  0  0  0  0  0  0  0  0
    1.7774    3.2295    0.0000 C   0  0  0  0  0  0  0  0  0  0  0  0
   -2.3866    1.5254    0.0000 C   0  0  0  0  0  0  0  0  0  0  0  0
   -1.6720    0.2886    0.0000 C   0  0  0  0  0  0  0  0  0  0  0  0
    3.0142    2.5149    0.0000 C   0  0  0  0  0  0  0  0  0  0  0  0
    2.6019    3.2295    0.0000 C   0  0  0  0  0  0  0  0  0  0  0  0
   -2.3866   -0.1237    0.0000 C   0  0  0  0  0  0  0  0  0  0  0  0
   -3.0920    1.1131    0.0000 C   0  0  0  0  0  0  0  0  0  0  0  0
   -3.0920    0.2886    0.0000 C   0  0  0  0  0  0  0  0  0  0  0  0
  2  1  2  0  0  0  0
  3  1  1  0  0  0  0
  4  3  1  0  0  0  0
  5  2  1  0  0  0  0
  5  4  1  0  0  0  0
  6  9  1  0  0  0  0
  7  6  3  0  0  0  0
  8  1  1  0  0  0  0
  9  3  1  0  0  0  0
 10  8  1  0  0  0  0
 11 10  1  0  0  0  0
 12  4  2  0  0  0  0
 13  5  2  0  0  0  0
 14 11  2  0  0  0  0
 15 11  1  0  0  0  0
 16 12  1  0  0  0  0
 17 13  1  0  0  0  0
 17 16  2  0  0  0  0
 18 15  2  0  0  0  0
 19 14  1  0  0  0  0
 19 20  2  0  0  0  0
 20 18  1  0  0  0  0
M  END
>  <CdId>
1584

>  <Mol Weight>
260.333

>  <Formula>
C18H16N2

>  <Click_ID>
CLK021C09 __  __  __

$$$$
CLK021D07 __  __  __
 OpenBabel03171423152D

 19 21  0  0  0  0  0  0  0  0999 V2000
    3.6611    2.0207    0.0000 C   0  0  0  0  0  0  0  0  0  0  0  0
    3.1800    1.3563    0.0000 N   0  0  0  0  0  0  0  0  0  0  0  0
    3.1800    2.6896    0.0000 N   0  0  0  0  0  0  0  0  0  0  0  0
    4.4859    2.0207    0.0000 C   0  0  0  0  0  0  0  0  0  0  0  0
    2.3965    2.4331    0.0000 C   0  0  0  0  0  0  0  0  0  0  0  0
    2.3965    1.6083    0.0000 C   0  0  0  0  0  0  0  0  0  0  0  0
    2.8776    4.0826    0.0000 C   0  0  0  0  0  0  0  0  0  0  0  0
    2.3277    4.6921    0.0000 C   0  0  0  0  0  0  0  0  0  0  0  0
    4.8983    1.3059    0.0000 C   0  0  0  0  0  0  0  0  0  0  0  0
    3.4274    3.4732    0.0000 C   0  0  0  0  0  0  0  0  0  0  0  0
    4.4859    0.5911    0.0000 Br  0  0  0  0  0  0  0  0  0  0  0  0
    4.8983    2.7355    0.0000 C   0  0  0  0  0  0  0  0  0  0  0  0
    1.6817    2.8455    0.0000 C   0  0  0  0  0  0  0  0  0  0  0  0
    1.6817    1.1959    0.0000 C   0  0  0  0  0  0  0  0  0  0  0  0
    5.7230    1.3059    0.0000 C   0  0  0  0  0  0  0  0  0  0  0  0
    5.7230    2.7355    0.0000 C   0  0  0  0  0  0  0  0  0  0  0  0
    0.9669    2.4331    0.0000 C   0  0  0  0  0  0  0  0  0  0  0  0
    0.9669    1.6083    0.0000 C   0  0  0  0  0  0  0  0  0  0  0  0
    6.1354    2.0207    0.0000 C   0  0  0  0  0  0  0  0  0  0  0  0
  2  1  2  0  0  0  0
  3  1  1  0  0  0  0
  4  1  1  0  0  0  0
  5  3  1  0  0  0  0
  6  2  1  0  0  0  0
  6  5  1  0  0  0  0
  7 10  1  0  0  0  0
  8  7  3  0  0  0  0
  9  4  2  0  0  0  0
 10  3  1  0  0  0  0
 11  9  1  0  0  0  0
 12  4  1  0  0  0  0
 13  5  2  0  0  0  0
 14  6  2  0  0  0  0
 15  9  1  0  0  0  0
 15 19  2  0  0  0  0
 16 12  2  0  0  0  0
 17 13  1  0  0  0  0
 18 14  1  0  0  0  0
 18 17  2  0  0  0  0
 19 16  1  0  0  0  0
M  END
>  <CdId>
1592

>  <Mol Weight>
311.176

>  <Formula>
C16H11BrN2

>  <Click_ID>
CLK021D07 __  __  __

$$$$
CLK021D08 __  __  __
 OpenBabel03171423152D

 19 21  0  0  0  0  0  0  0  0999 V2000
    7.3934    2.6477    0.0000 C   0  0  0  0  0  0  0  0  0  0  0  0
    7.3109    1.8231    0.0000 N   0  0  0  0  0  0  0  0  0  0  0  0
    6.6422    2.9775    0.0000 N   0  0  0  0  0  0  0  0  0  0  0  0
    6.0879    2.3728    0.0000 C   0  0  0  0  0  0  0  0  0  0  0  0
    6.5001    1.6582    0.0000 C   0  0  0  0  0  0  0  0  0  0  0  0
    8.1080    3.0599    0.0000 C   0  0  0  0  0  0  0  0  0  0  0  0
    5.6802    4.0403    0.0000 C   0  0  0  0  0  0  0  0  0  0  0  0
    4.8969    4.2967    0.0000 C   0  0  0  0  0  0  0  0  0  0  0  0
    8.8226    2.6477    0.0000 C   0  0  0  0  0  0  0  0  0  0  0  0
    6.4727    3.7883    0.0000 C   0  0  0  0  0  0  0  0  0  0  0  0
    9.5372    3.0599    0.0000 C   0  0  0  0  0  0  0  0  0  0  0  0
    8.1080    3.8845    0.0000 C   0  0  0  0  0  0  0  0  0  0  0  0
    5.2633    2.3728    0.0000 C   0  0  0  0  0  0  0  0  0  0  0  0
    6.0879    0.9436    0.0000 C   0  0  0  0  0  0  0  0  0  0  0  0
    8.8226    4.2967    0.0000 C   0  0  0  0  0  0  0  0  0  0  0  0
    9.5372    3.8845    0.0000 C   0  0  0  0  0  0  0  0  0  0  0  0
   10.2518    2.6477    0.0000 C   0  0  0  0  0  0  0  0  0  0  0  0
    4.8511    1.6582    0.0000 C   0  0  0  0  0  0  0  0  0  0  0  0
    5.2633    0.9436    0.0000 C   0  0  0  0  0  0  0  0  0  0  0  0
  2  1  2  0  0  0  0
  3  1  1  0  0  0  0
  4  3  1  0  0  0  0
  5  2  1  0  0  0  0
  5  4  1  0  0  0  0
  6  1  1  0  0  0  0
  7 10  1  0  0  0  0
  8  7  3  0  0  0  0
  9  6  2  0  0  0  0
 10  3  1  0  0  0  0
 11  9  1  0  0  0  0
 11 16  2  0  0  0  0
 12  6  1  0  0  0  0
 13  4  2  0  0  0  0
 14  5  2  0  0  0  0
 15 12  2  0  0  0  0
 16 15  1  0  0  0  0
 17 11  1  0  0  0  0
 18 13  1  0  0  0  0
 19 14  1  0  0  0  0
 19 18  2  0  0  0  0
M  END
>  <CdId>
1593

>  <Mol Weight>
246.3065

>  <Formula>
C17H14N2

>  <Click_ID>
CLK021D08 __  __  __

$$$$
CLK021F09 __  __  __
 OpenBabel03171423152D

 19 21  0  0  0  0  0  0  0  0999 V2000
    3.9371    2.9241    0.0000 C   0  0  0  0  0  0  0  0  0  0  0  0
    3.8546    2.0991    0.0000 N   0  0  0  0  0  0  0  0  0  0  0  0
    3.1900    3.2541    0.0000 N   0  0  0  0  0  0  0  0  0  0  0  0
    2.6309    2.6400    0.0000 C   0  0  0  0  0  0  0  0  0  0  0  0
    3.0434    1.9250    0.0000 C   0  0  0  0  0  0  0  0  0  0  0  0
    4.6521    3.3366    0.0000 C   0  0  0  0  0  0  0  0  0  0  0  0
    2.2321    4.3175    0.0000 C   0  0  0  0  0  0  0  0  0  0  0  0
    1.4484    4.5650    0.0000 C   0  0  0  0  0  0  0  0  0  0  0  0
    3.0159    4.0654    0.0000 C   0  0  0  0  0  0  0  0  0  0  0  0
    5.3671    2.9241    0.0000 C   0  0  0  0  0  0  0  0  0  0  0  0
    1.8059    2.6400    0.0000 C   0  0  0  0  0  0  0  0  0  0  0  0
    4.6521    4.1616    0.0000 C   0  0  0  0  0  0  0  0  0  0  0  0
    2.6309    1.2191    0.0000 C   0  0  0  0  0  0  0  0  0  0  0  0
    5.3671    2.0991    0.0000 C   0  0  0  0  0  0  0  0  0  0  0  0
    6.0821    3.3366    0.0000 C   0  0  0  0  0  0  0  0  0  0  0  0
    1.3934    1.9250    0.0000 C   0  0  0  0  0  0  0  0  0  0  0  0
    5.3671    4.5650    0.0000 C   0  0  0  0  0  0  0  0  0  0  0  0
    1.8059    1.2191    0.0000 C   0  0  0  0  0  0  0  0  0  0  0  0
    6.0821    4.1616    0.0000 C   0  0  0  0  0  0  0  0  0  0  0  0
  2  1  2  0  0  0  0
  3  1  1  0  0  0  0
  4  3  1  0  0  0  0
  5  2  1  0  0  0  0
  5  4  1  0  0  0  0
  6  1  1  0  0  0  0
  7  9  1  0  0  0  0
  8  7  3  0  0  0  0
  9  3  1  0  0  0  0
 10  6  2  0  0  0  0
 11  4  2  0  0  0  0
 12  6  1  0  0  0  0
 13  5  2  0  0  0  0
 14 10  1  0  0  0  0
 15 10  1  0  0  0  0
 15 19  2  0  0  0  0
 16 11  1  0  0  0  0
 17 12  2  0  0  0  0
 18 13  1  0  0  0  0
 18 16  2  0  0  0  0
 19 17  1  0  0  0  0
M  END
>  <CdId>
1614

>  <Mol Weight>
246.3065

>  <Formula>
C17H14N2

>  <Click_ID>
CLK021F09 __  __  __

$$$$
CLK021H07 __  __  __
 OpenBabel03171423152D

 20 22  0  0  0  0  0  0  0  0999 V2000
    0.4719    1.5254    0.0000 C   0  0  0  0  0  0  0  0  0  0  0  0
    0.5634    2.3453    0.0000 N   0  0  0  0  0  0  0  0  0  0  0  0
    1.2277    1.1910    0.0000 N   0  0  0  0  0  0  0  0  0  0  0  0
    1.7774    1.8003    0.0000 C   0  0  0  0  0  0  0  0  0  0  0  0
    1.3651    2.5149    0.0000 C   0  0  0  0  0  0  0  0  0  0  0  0
   -0.2427    1.1131    0.0000 C   0  0  0  0  0  0  0  0  0  0  0  0
    2.1850    0.1328    0.0000 C   0  0  0  0  0  0  0  0  0  0  0  0
    2.9684   -0.1283    0.0000 C   0  0  0  0  0  0  0  0  0  0  0  0
   -0.9573    1.5254    0.0000 C   0  0  0  0  0  0  0  0  0  0  0  0
    1.4017    0.3802    0.0000 C   0  0  0  0  0  0  0  0  0  0  0  0
   -1.6720    1.1131    0.0000 C   0  0  0  0  0  0  0  0  0  0  0  0
    2.6019    1.8003    0.0000 C   0  0  0  0  0  0  0  0  0  0  0  0
    1.7774    3.2295    0.0000 C   0  0  0  0  0  0  0  0  0  0  0  0
   -2.3866    1.5254    0.0000 C   0  0  0  0  0  0  0  0  0  0  0  0
   -1.6720    0.2886    0.0000 C   0  0  0  0  0  0  0  0  0  0  0  0
    3.0142    2.5149    0.0000 C   0  0  0  0  0  0  0  0  0  0  0  0
    2.6019    3.2295    0.0000 C   0  0  0  0  0  0  0  0  0  0  0  0
   -2.3866   -0.1237    0.0000 C   0  0  0  0  0  0  0  0  0  0  0  0
   -3.0920    1.1131    0.0000 C   0  0  0  0  0  0  0  0  0  0  0  0
   -3.0920    0.2886    0.0000 C   0  0  0  0  0  0  0  0  0  0  0  0
  2  1  2  0  0  0  0
  3  1  1  0  0  0  0
  4  3  1  0  0  0  0
  5  2  1  0  0  0  0
  5  4  1  0  0  0  0
  6  1  1  0  0  0  0
  7 10  1  0  0  0  0
  8  7  3  0  0  0  0
  9  6  2  0  0  0  0
 10  3  1  0  0  0  0
 11  9  1  0  0  0  0
 12  4  2  0  0  0  0
 13  5  2  0  0  0  0
 14 11  2  0  0  0  0
 15 11  1  0  0  0  0
 16 12  1  0  0  0  0
 17 13  1  0  0  0  0
 17 16  2  0  0  0  0
 18 15  2  0  0  0  0
 19 14  1  0  0  0  0
 19 20  2  0  0  0  0
 20 18  1  0  0  0  0
M  END
>  <CdId>
1632

>  <Mol Weight>
258.3172

>  <Formula>
C18H14N2

>  <Click_ID>
CLK021H07 __  __  __

$$$$
CLK022B09 __  __  __
 OpenBabel03171423152D

 23 24  0  0  0  0  0  0  0  0999 V2000
    6.1612    1.3009    0.0000 C   0  0  0  0  0  0  0  0  0  0  0  0
    6.5735    2.0155    0.0000 N   0  0  0  0  0  0  0  0  0  0  0  0
    7.3980    2.0155    0.0000 C   0  0  0  0  0  0  0  0  0  0  0  0
    1.6262    2.0155    0.0000 C   0  0  0  0  0  0  0  0  0  0  0  0
    0.8017    2.0155    0.0000 C   0  0  0  0  0  0  0  0  0  0  0  0
    7.8103    1.3009    0.0000 C   0  0  0  0  0  0  0  0  0  0  0  0
    5.3367    1.3009    0.0000 C   0  0  0  0  0  0  0  0  0  0  0  0
    7.8103    2.7301    0.0000 C   0  0  0  0  0  0  0  0  0  0  0  0
    6.5735    0.5863    0.0000 O   0  0  0  0  0  0  0  0  0  0  0  0
    4.9244    2.0155    0.0000 C   0  0  0  0  0  0  0  0  0  0  0  0
    4.9244    0.5863    0.0000 C   0  0  0  0  0  0  0  0  0  0  0  0
    8.6348    2.7301    0.0000 C   0  0  0  0  0  0  0  0  0  0  0  0
    8.6348    1.3009    0.0000 C   0  0  0  0  0  0  0  0  0  0  0  0
    3.6876    1.3009    0.0000 C   0  0  0  0  0  0  0  0  0  0  0  0
    9.0471    2.0155    0.0000 C   0  0  0  0  0  0  0  0  0  0  0  0
    4.0998    0.5863    0.0000 C   0  0  0  0  0  0  0  0  0  0  0  0
    4.0998    2.0155    0.0000 C   0  0  0  0  0  0  0  0  0  0  0  0
    7.3980    3.4447    0.0000 O   0  0  0  0  0  0  0  0  0  0  0  0
    2.4508    2.0155    0.0000 C   0  0  0  0  0  0  0  0  0  0  0  0
    2.8630    1.3009    0.0000 O   0  0  0  0  0  0  0  0  0  0  0  0
    9.0471    0.5863    0.0000 O   0  0  0  0  0  0  0  0  0  0  0  0
    7.8103    4.1593    0.0000 C   0  0  0  0  0  0  0  0  0  0  0  0
    9.8716    0.5863    0.0000 C   0  0  0  0  0  0  0  0  0  0  0  0
  2  1  1  0  0  0  0
  3  2  1  0  0  0  0
  4 19  1  0  0  0  0
  5  4  3  0  0  0  0
  6  3  2  0  0  0  0
  7  1  1  0  0  0  0
  8  3  1  0  0  0  0
  9  1  2  0  0  0  0
 10  7  1  0  0  0  0
 11  7  2  0  0  0  0
 12  8  2  0  0  0  0
 13  6  1  0  0  0  0
 13 15  2  0  0  0  0
 14 16  2  0  0  0  0
 14 17  1  0  0  0  0
 15 12  1  0  0  0  0
 16 11  1  0  0  0  0
 17 10  2  0  0  0  0
 18  8  1  0  0  0  0
 19 20  1  0  0  0  0
 20 14  1  0  0  0  0
 21 13  1  0  0  0  0
 22 18  1  0  0  0  0
 23 21  1  0  0  0  0
M  END
>  <CdId>
1652

>  <Mol Weight>
311.3319

>  <Formula>
C18H17NO4

>  <Click_ID>
CLK022B09 __  __  __

$$$$
CLK022C08 __  __  __
 OpenBabel03171423152D

 21 22  0  0  0  0  0  0  0  0999 V2000
    6.2162    2.7026    0.0000 C   0  0  0  0  0  0  0  0  0  0  0  0
    6.6284    1.9789    0.0000 N   0  0  0  0  0  0  0  0  0  0  0  0
    7.4530    1.9789    0.0000 C   0  0  0  0  0  0  0  0  0  0  0  0
    1.6812    1.9789    0.0000 C   0  0  0  0  0  0  0  0  0  0  0  0
    0.8566    1.9789    0.0000 C   0  0  0  0  0  0  0  0  0  0  0  0
    7.8653    1.2643    0.0000 C   0  0  0  0  0  0  0  0  0  0  0  0
    5.3916    2.7026    0.0000 C   0  0  0  0  0  0  0  0  0  0  0  0
    6.6284    3.4172    0.0000 O   0  0  0  0  0  0  0  0  0  0  0  0
    8.6898    1.2643    0.0000 C   0  0  0  0  0  0  0  0  0  0  0  0
    7.8653    2.7026    0.0000 C   0  0  0  0  0  0  0  0  0  0  0  0
    4.9794    3.4172    0.0000 C   0  0  0  0  0  0  0  0  0  0  0  0
    4.9794    1.9789    0.0000 C   0  0  0  0  0  0  0  0  0  0  0  0
    9.1021    1.9789    0.0000 C   0  0  0  0  0  0  0  0  0  0  0  0
    3.7425    2.7026    0.0000 C   0  0  0  0  0  0  0  0  0  0  0  0
    8.6898    2.7026    0.0000 C   0  0  0  0  0  0  0  0  0  0  0  0
    4.1548    3.4172    0.0000 C   0  0  0  0  0  0  0  0  0  0  0  0
    4.1548    1.9789    0.0000 C   0  0  0  0  0  0  0  0  0  0  0  0
    9.9266    1.9789    0.0000 Cl  0  0  0  0  0  0  0  0  0  0  0  0
    2.5057    1.9789    0.0000 C   0  0  0  0  0  0  0  0  0  0  0  0
    2.9180    2.7026    0.0000 O   0  0  0  0  0  0  0  0  0  0  0  0
    7.4530    0.5497    0.0000 C   0  0  0  0  0  0  0  0  0  0  0  0
  2  1  1  0  0  0  0
  3  2  1  0  0  0  0
  4 19  1  0  0  0  0
  5  4  3  0  0  0  0
  6  3  1  0  0  0  0
  7  1  1  0  0  0  0
  8  1  2  0  0  0  0
  9  6  2  0  0  0  0
  9 13  1  0  0  0  0
 10  3  2  0  0  0  0
 11  7  2  0  0  0  0
 12  7  1  0  0  0  0
 13 15  2  0  0  0  0
 14 17  1  0  0  0  0
 14 16  2  0  0  0  0
 15 10  1  0  0  0  0
 16 11  1  0  0  0  0
 17 12  2  0  0  0  0
 18 13  1  0  0  0  0
 19 20  1  0  0  0  0
 20 14  1  0  0  0  0
 21  6  1  0  0  0  0
M  END
>  <CdId>
1659

>  <Mol Weight>
299.752

>  <Formula>
C17H14ClNO2

>  <Click_ID>
CLK022C08 __  __  __

$$$$
CLK022F05 __  __  __
 OpenBabel03171423152D

 23 25  0  0  0  0  0  0  0  0999 V2000
    4.4846    0.5726    0.0000 C   0  0  0  0  0  0  0  0  0  0  0  0
    4.0724    1.2872    0.0000 N   0  0  0  0  0  0  0  0  0  0  0  0
    2.0110    2.0018    0.0000 C   0  0  0  0  0  0  0  0  0  0  0  0
    9.0196   -0.1420    0.0000 C   0  0  0  0  0  0  0  0  0  0  0  0
    2.8355    2.0018    0.0000 C   0  0  0  0  0  0  0  0  0  0  0  0
    9.8442   -0.1420    0.0000 C   0  0  0  0  0  0  0  0  0  0  0  0
    5.3092    0.5726    0.0000 C   0  0  0  0  0  0  0  0  0  0  0  0
    1.5987    1.2872    0.0000 C   0  0  0  0  0  0  0  0  0  0  0  0
    3.2478    1.2872    0.0000 C   0  0  0  0  0  0  0  0  0  0  0  0
    1.5987    2.7164    0.0000 O   0  0  0  0  0  0  0  0  0  0  0  0
    4.0724   -0.1420    0.0000 O   0  0  0  0  0  0  0  0  0  0  0  0
    0.7742    1.2872    0.0000 O   0  0  0  0  0  0  0  0  0  0  0  0
    2.0110    0.5726    0.0000 C   0  0  0  0  0  0  0  0  0  0  0  0
    5.7214   -0.1420    0.0000 C   0  0  0  0  0  0  0  0  0  0  0  0
    5.7214    1.2872    0.0000 C   0  0  0  0  0  0  0  0  0  0  0  0
    2.8355    0.5726    0.0000 C   0  0  0  0  0  0  0  0  0  0  0  0
    6.9583    0.5726    0.0000 C   0  0  0  0  0  0  0  0  0  0  0  0
    6.5460    1.2872    0.0000 C   0  0  0  0  0  0  0  0  0  0  0  0
    6.5460   -0.1420    0.0000 C   0  0  0  0  0  0  0  0  0  0  0  0
    8.1951   -0.1420    0.0000 C   0  0  0  0  0  0  0  0  0  0  0  0
    7.7828    0.5726    0.0000 O   0  0  0  0  0  0  0  0  0  0  0  0
    0.7742    2.7164    0.0000 C   0  0  0  0  0  0  0  0  0  0  0  0
    0.3619    2.0018    0.0000 C   0  0  0  0  0  0  0  0  0  0  0  0
  2  1  1  0  0  0  0
  3  5  2  0  0  0  0
  3  8  1  0  0  0  0
  4 20  1  0  0  0  0
  5  9  1  0  0  0  0
  6  4  3  0  0  0  0
  7  1  1  0  0  0  0
  8 13  2  0  0  0  0
  9  2  1  0  0  0  0
 10  3  1  0  0  0  0
 11  1  2  0  0  0  0
 12  8  1  0  0  0  0
 13 16  1  0  0  0  0
 14  7  1  0  0  0  0
 15  7  2  0  0  0  0
 16  9  2  0  0  0  0
 17 18  2  0  0  0  0
 17 19  1  0  0  0  0
 18 15  1  0  0  0  0
 19 14  2  0  0  0  0
 20 21  1  0  0  0  0
 21 17  1  0  0  0  0
 22 10  1  0  0  0  0
 22 23  1  0  0  0  0
 23 12  1  0  0  0  0
M  END
>  <CdId>
1679

>  <Mol Weight>
309.316

>  <Formula>
C18H15NO4

>  <Click_ID>
CLK022F05 __  __  __

$$$$
CLK022G05 __  __  __
 OpenBabel03171423152D

 20 21  0  0  0  0  0  0  0  0999 V2000
    9.9770    0.8337    0.0000 C   0  0  0  0  0  0  0  0  0  0  0  0
    9.2624    1.2459    0.0000 N   0  0  0  0  0  0  0  0  0  0  0  0
    8.5478    0.8337    0.0000 C   0  0  0  0  0  0  0  0  0  0  0  0
    7.8331    1.2459    0.0000 N   0  0  0  0  0  0  0  0  0  0  0  0
   14.2555    2.4828    0.0000 C   0  0  0  0  0  0  0  0  0  0  0  0
   14.9701    2.8950    0.0000 C   0  0  0  0  0  0  0  0  0  0  0  0
   10.6824    1.2459    0.0000 C   0  0  0  0  0  0  0  0  0  0  0  0
    9.9770    0.0091    0.0000 O   0  0  0  0  0  0  0  0  0  0  0  0
   11.3970    0.8337    0.0000 C   0  0  0  0  0  0  0  0  0  0  0  0
   10.6824    2.0705    0.0000 C   0  0  0  0  0  0  0  0  0  0  0  0
    7.1185    0.8337    0.0000 C   0  0  0  0  0  0  0  0  0  0  0  0
   12.1116    2.0705    0.0000 C   0  0  0  0  0  0  0  0  0  0  0  0
   11.3970    2.4828    0.0000 C   0  0  0  0  0  0  0  0  0  0  0  0
   12.1116    1.2459    0.0000 C   0  0  0  0  0  0  0  0  0  0  0  0
   13.5408    2.0705    0.0000 C   0  0  0  0  0  0  0  0  0  0  0  0
   12.8262    2.4828    0.0000 O   0  0  0  0  0  0  0  0  0  0  0  0
    8.5478    0.0091    0.0000 C   0  0  0  0  0  0  0  0  0  0  0  0
    7.8331   -0.4031    0.0000 C   0  0  0  0  0  0  0  0  0  0  0  0
    7.1185    0.0091    0.0000 C   0  0  0  0  0  0  0  0  0  0  0  0
    6.4039    1.2459    0.0000 C   0  0  0  0  0  0  0  0  0  0  0  0
  2  1  1  0  0  0  0
  3  2  1  0  0  0  0
  4  3  1  0  0  0  0
  5 15  1  0  0  0  0
  6  5  3  0  0  0  0
  7  1  1  0  0  0  0
  8  1  2  0  0  0  0
  9  7  2  0  0  0  0
 10  7  1  0  0  0  0
 11  4  2  0  0  0  0
 12 13  1  0  0  0  0
 13 10  2  0  0  0  0
 14  9  1  0  0  0  0
 14 12  2  0  0  0  0
 15 16  1  0  0  0  0
 16 12  1  0  0  0  0
 17  3  2  0  0  0  0
 18 17  1  0  0  0  0
 19 18  2  0  0  0  0
 19 11  1  0  0  0  0
 20 11  1  0  0  0  0
M  END
>  <CdId>
1686

>  <Mol Weight>
266.2946

>  <Formula>
C16H14N2O2

>  <Click_ID>
CLK022G05 __  __  __

$$$$
CLK022G06 __  __  __
 OpenBabel03171423152D

 23 24  0  0  0  0  0  0  0  0999 V2000
    4.3221    0.9991    0.0000 C   0  0  0  0  0  0  0  0  0  0  0  0
    3.9096    1.7050    0.0000 N   0  0  0  0  0  0  0  0  0  0  0  0
    3.0846    1.7050    0.0000 C   0  0  0  0  0  0  0  0  0  0  0  0
    2.6721    2.4291    0.0000 C   0  0  0  0  0  0  0  0  0  0  0  0
    8.8596    0.2841    0.0000 C   0  0  0  0  0  0  0  0  0  0  0  0
    9.6846    0.2841    0.0000 C   0  0  0  0  0  0  0  0  0  0  0  0
    1.8471    2.4291    0.0000 C   0  0  0  0  0  0  0  0  0  0  0  0
    5.1471    0.9991    0.0000 C   0  0  0  0  0  0  0  0  0  0  0  0
    3.9096    0.2841    0.0000 O   0  0  0  0  0  0  0  0  0  0  0  0
    2.6721    0.9991    0.0000 C   0  0  0  0  0  0  0  0  0  0  0  0
    5.5596    0.2841    0.0000 C   0  0  0  0  0  0  0  0  0  0  0  0
    5.5596    1.7050    0.0000 C   0  0  0  0  0  0  0  0  0  0  0  0
    1.4346    1.7050    0.0000 C   0  0  0  0  0  0  0  0  0  0  0  0
    6.7971    0.9991    0.0000 C   0  0  0  0  0  0  0  0  0  0  0  0
    1.8471    0.9991    0.0000 C   0  0  0  0  0  0  0  0  0  0  0  0
    3.0846    3.1350    0.0000 O   0  0  0  0  0  0  0  0  0  0  0  0
    6.3846    1.7050    0.0000 C   0  0  0  0  0  0  0  0  0  0  0  0
    6.3846    0.2841    0.0000 C   0  0  0  0  0  0  0  0  0  0  0  0
    8.0346    0.2841    0.0000 C   0  0  0  0  0  0  0  0  0  0  0  0
    7.6221    0.9991    0.0000 O   0  0  0  0  0  0  0  0  0  0  0  0
    0.6096    1.7050    0.0000 O   0  0  0  0  0  0  0  0  0  0  0  0
    2.6721    3.8500    0.0000 C   0  0  0  0  0  0  0  0  0  0  0  0
    0.1971    0.9991    0.0000 C   0  0  0  0  0  0  0  0  0  0  0  0
  2  1  1  0  0  0  0
  3  2  1  0  0  0  0
  4  3  1  0  0  0  0
  5 19  1  0  0  0  0
  6  5  3  0  0  0  0
  7  4  2  0  0  0  0
  7 13  1  0  0  0  0
  8  1  1  0  0  0  0
  9  1  2  0  0  0  0
 10  3  2  0  0  0  0
 11  8  2  0  0  0  0
 12  8  1  0  0  0  0
 13 15  2  0  0  0  0
 14 17  1  0  0  0  0
 14 18  2  0  0  0  0
 15 10  1  0  0  0  0
 16  4  1  0  0  0  0
 17 12  2  0  0  0  0
 18 11  1  0  0  0  0
 19 20  1  0  0  0  0
 20 14  1  0  0  0  0
 21 13  1  0  0  0  0
 22 16  1  0  0  0  0
 23 21  1  0  0  0  0
M  END
>  <CdId>
1687

>  <Mol Weight>
311.3319

>  <Formula>
C18H17NO4

>  <Click_ID>
CLK022G06 __  __  __

$$$$
CLK022H02 __  __  __
 OpenBabel03171423152D

 19 19  0  0  0  0  0  0  0  0999 V2000
    3.7151    2.0018    0.0000 C   0  0  0  0  0  0  0  0  0  0  0  0
    1.7087    1.4108    0.0000 C   0  0  0  0  0  0  0  0  0  0  0  0
    3.0005    1.5895    0.0000 N   0  0  0  0  0  0  0  0  0  0  0  0
    4.4297    1.5895    0.0000 N   0  0  0  0  0  0  0  0  0  0  0  0
    1.1177    0.8337    0.0000 C   0  0  0  0  0  0  0  0  0  0  0  0
    2.2859    2.0018    0.0000 C   0  0  0  0  0  0  0  0  0  0  0  0
    3.7151    2.8263    0.0000 O   0  0  0  0  0  0  0  0  0  0  0  0
    5.1443    2.0018    0.0000 C   0  0  0  0  0  0  0  0  0  0  0  0
    5.8589    1.5895    0.0000 C   0  0  0  0  0  0  0  0  0  0  0  0
    6.5735    2.0018    0.0000 C   0  0  0  0  0  0  0  0  0  0  0  0
    7.2881    1.5895    0.0000 O   0  0  0  0  0  0  0  0  0  0  0  0
    5.8589    3.2386    0.0000 C   0  0  0  0  0  0  0  0  0  0  0  0
    5.1443    2.8263    0.0000 C   0  0  0  0  0  0  0  0  0  0  0  0
    2.7531    2.6751    0.0000 C   0  0  0  0  0  0  0  0  0  0  0  0
    1.6537    2.5240    0.0000 C   0  0  0  0  0  0  0  0  0  0  0  0
    6.5735    2.8263    0.0000 C   0  0  0  0  0  0  0  0  0  0  0  0
    8.0027    2.0018    0.0000 C   0  0  0  0  0  0  0  0  0  0  0  0
    1.8003    3.3485    0.0000 C   0  0  0  0  0  0  0  0  0  0  0  0
    2.4095    3.4172    0.0000 C   0  0  0  0  0  0  0  0  0  0  0  0
  2  6  1  0  0  0  0
  3  1  1  0  0  0  0
  4  1  1  0  0  0  0
  5  2  3  0  0  0  0
  6  3  1  0  0  0  0
  7  1  2  0  0  0  0
  8  4  1  0  0  0  0
  9  8  2  0  0  0  0
 10  9  1  0  0  0  0
 11 10  1  0  0  0  0
 12 13  2  0  0  0  0
 13  8  1  0  0  0  0
 14  6  1  0  0  0  0
 15  6  1  0  0  0  0
 16 12  1  0  0  0  0
 16 10  2  0  0  0  0
 17 11  1  0  0  0  0
 18 15  1  0  0  0  0
 19 14  1  0  0  0  0
M  END
>  <CdId>
1690

>  <Mol Weight>
260.3315

>  <Formula>
C15H20N2O2

>  <Click_ID>
CLK022H02 __  __  __

$$$$
CLK023G04 __  __  __
 OpenBabel03171423152D

 29 32  0  0  0  0  0  0  0  0999 V2000
    1.2602    0.1168    0.0000 N   0  0  0  0  0  0  0  0  0  0  0  0
   -0.1614    0.1030    0.0000 C   0  0  0  0  0  0  0  0  0  0  0  0
    0.5494    0.5219    0.0000 C   0  0  0  0  0  0  0  0  0  0  0  0
    1.2738   -0.7005    0.0000 C   0  0  0  0  0  0  0  0  0  0  0  0
    0.5631   -1.1193    0.0000 N   0  0  0  0  0  0  0  0  0  0  0  0
   -0.1545   -0.7245    0.0000 C   0  0  0  0  0  0  0  0  0  0  0  0
   -1.5898    0.0859    0.0000 C   0  0  0  0  0  0  0  0  0  0  0  0
   -0.8859    0.5116    0.0000 C   0  0  0  0  0  0  0  0  0  0  0  0
   -2.4825   -0.9236    0.0000 N   0  0  0  0  0  0  0  0  0  0  0  0
   -1.6722   -0.7485    0.0000 C   0  0  0  0  0  0  0  0  0  0  0  0
    1.9709    0.5356    0.0000 C   0  0  0  0  0  0  0  0  0  0  0  0
   -2.3383    0.4017    0.0000 C   0  0  0  0  0  0  0  0  0  0  0  0
   -2.8877   -0.2095    0.0000 C   0  0  0  0  0  0  0  0  0  0  0  0
    2.6920    0.1236    0.0000 C   0  0  0  0  0  0  0  0  0  0  0  0
   -3.6327   -1.7683    0.0000 C   0  0  0  0  0  0  0  0  0  0  0  0
    1.9846   -1.1056    0.0000 O   0  0  0  0  0  0  0  0  0  0  0  0
   -4.1169   -1.0987    0.0000 C   0  0  0  0  0  0  0  0  0  0  0  0
    0.5356    1.3459    0.0000 O   0  0  0  0  0  0  0  0  0  0  0  0
   -0.8618   -1.1365    0.0000 O   0  0  0  0  0  0  0  0  0  0  0  0
   -2.8087   -1.6722    0.0000 C   0  0  0  0  0  0  0  0  0  0  0  0
    3.3958    0.5494    0.0000 C   0  0  0  0  0  0  0  0  0  0  0  0
    1.9606    1.3529    0.0000 C   0  0  0  0  0  0  0  0  0  0  0  0
    4.1135    0.1374    0.0000 F   0  0  0  0  0  0  0  0  0  0  0  0
   -3.6945   -0.0377    0.0000 C   0  0  0  0  0  0  0  0  0  0  0  0
   -2.5958    1.1846    0.0000 C   0  0  0  0  0  0  0  0  0  0  0  0
    2.6714    1.7717    0.0000 C   0  0  0  0  0  0  0  0  0  0  0  0
    3.3958    1.3735    0.0000 C   0  0  0  0  0  0  0  0  0  0  0  0
   -3.4061    1.3597    0.0000 C   0  0  0  0  0  0  0  0  0  0  0  0
   -3.9555    0.7417    0.0000 C   0  0  0  0  0  0  0  0  0  0  0  0
  2  3  1  0  0  0  0
  2  6  1  0  0  0  0
  3  1  1  0  0  0  0
  4  1  1  0  0  0  0
  5  4  1  0  0  0  0
  6  5  1  0  0  0  0
  7  8  1  0  0  0  0
  8  2  2  0  0  0  0
  9 10  1  0  0  0  0
 10  7  2  0  0  0  0
 11  1  1  0  0  0  0
 12  7  1  0  0  0  0
 13 12  2  0  0  0  0
 13  9  1  0  0  0  0
 14 11  2  0  0  0  0
 15 20  1  0  0  0  0
 16  4  2  0  0  0  0
 17 15  3  0  0  0  0
 18  3  2  0  0  0  0
 19  6  2  0  0  0  0
 20  9  1  0  0  0  0
 21 14  1  0  0  0  0
 21 27  2  0  0  0  0
 22 11  1  0  0  0  0
 23 21  1  0  0  0  0
 24 13  1  0  0  0  0
 25 12  1  0  0  0  0
 26 22  2  0  0  0  0
 27 26  1  0  0  0  0
 28 25  2  0  0  0  0
 29 28  1  0  0  0  0
 29 24  2  0  0  0  0
M  END
>  <CdId>
1759

>  <Mol Weight>
387.3633

>  <Formula>
C22H14FN3O3

>  <Click_ID>
CLK023G04 __  __  __

$$$$
CLK023G10 __  __  __
 OpenBabel03171423152D

 30 33  0  0  0  0  0  0  0  0999 V2000
    0.3268   -0.5882    0.0000 C   0  0  0  0  0  0  0  0  0  0  0  0
    1.7544   -0.6260    0.0000 C   0  0  0  0  0  0  0  0  0  0  0  0
    2.6729    0.3406    0.0000 N   0  0  0  0  0  0  0  0  0  0  0  0
   -0.4093   -1.0010    0.0000 C   0  0  0  0  0  0  0  0  0  0  0  0
    1.0285   -1.0251    0.0000 C   0  0  0  0  0  0  0  0  0  0  0  0
    1.8611    0.1858    0.0000 C   0  0  0  0  0  0  0  0  0  0  0  0
   -1.1214   -0.5744    0.0000 N   0  0  0  0  0  0  0  0  0  0  0  0
    2.4974   -0.9769    0.0000 C   0  0  0  0  0  0  0  0  0  0  0  0
    3.0650   -0.3853    0.0000 C   0  0  0  0  0  0  0  0  0  0  0  0
   -2.5319    0.2752    0.0000 N   0  0  0  0  0  0  0  0  0  0  0  0
    0.3371    0.2339    0.0000 C   0  0  0  0  0  0  0  0  0  0  0  0
    0.3440    1.0595    0.0000 N   0  0  0  0  0  0  0  0  0  0  0  0
    3.8493    1.1524    0.0000 C   0  0  0  0  0  0  0  0  0  0  0  0
    4.6646    1.2109    0.0000 C   0  0  0  0  0  0  0  0  0  0  0  0
   -0.4197   -1.8266    0.0000 O   0  0  0  0  0  0  0  0  0  0  0  0
   -1.0974    0.2580    0.0000 C   0  0  0  0  0  0  0  0  0  0  0  0
   -1.8438   -0.9769    0.0000 C   0  0  0  0  0  0  0  0  0  0  0  0
   -2.5456   -0.5504    0.0000 C   0  0  0  0  0  0  0  0  0  0  0  0
   -1.8060    0.6776    0.0000 C   0  0  0  0  0  0  0  0  0  0  0  0
   -3.2439    0.7086    0.0000 C   0  0  0  0  0  0  0  0  0  0  0  0
    3.0272    1.0836    0.0000 C   0  0  0  0  0  0  0  0  0  0  0  0
    3.8631   -0.5744    0.0000 C   0  0  0  0  0  0  0  0  0  0  0  0
    2.7279   -1.7647    0.0000 C   0  0  0  0  0  0  0  0  0  0  0  0
   -3.9594    0.3027    0.0000 C   0  0  0  0  0  0  0  0  0  0  0  0
   -3.2233    1.5342    0.0000 C   0  0  0  0  0  0  0  0  0  0  0  0
    3.5294   -1.9608    0.0000 C   0  0  0  0  0  0  0  0  0  0  0  0
    4.0970   -1.3519    0.0000 C   0  0  0  0  0  0  0  0  0  0  0  0
   -4.6681    0.7396    0.0000 C   0  0  0  0  0  0  0  0  0  0  0  0
   -3.9284    1.9643    0.0000 C   0  0  0  0  0  0  0  0  0  0  0  0
   -4.6543    1.5618    0.0000 C   0  0  0  0  0  0  0  0  0  0  0  0
  2  5  1  0  0  0  0
  3  6  1  0  0  0  0
  3  9  1  0  0  0  0
  4  1  1  0  0  0  0
  5  1  2  0  0  0  0
  6  2  2  0  0  0  0
  7  4  1  0  0  0  0
  8  2  1  0  0  0  0
  9  8  2  0  0  0  0
 10 18  1  0  0  0  0
 10 19  1  0  0  0  0
 11  1  1  0  0  0  0
 12 11  3  0  0  0  0
 13 21  1  0  0  0  0
 14 13  3  0  0  0  0
 15  4  2  0  0  0  0
 16  7  1  0  0  0  0
 17  7  1  0  0  0  0
 18 17  1  0  0  0  0
 19 16  1  0  0  0  0
 20 10  1  0  0  0  0
 21  3  1  0  0  0  0
 22  9  1  0  0  0  0
 22 27  2  0  0  0  0
 23  8  1  0  0  0  0
 24 20  1  0  0  0  0
 25 20  2  0  0  0  0
 26 23  2  0  0  0  0
 27 26  1  0  0  0  0
 28 24  2  0  0  0  0
 28 30  1  0  0  0  0
 29 25  1  0  0  0  0
 30 29  2  0  0  0  0
M  END
>  <CdId>
1765

>  <Mol Weight>
394.4684

>  <Formula>
C25H22N4O

>  <Click_ID>
CLK023G10 __  __  __

$$$$
CLK023G11 __  __  __
 OpenBabel03171423152D

 26 27  0  0  0  0  0  0  0  0999 V2000
   -0.9976   -0.4591    0.0000 C   0  0  0  0  0  0  0  0  0  0  0  0
   -1.7776   -0.4660    0.0000 C   0  0  0  0  0  0  0  0  0  0  0  0
   -0.6248    0.3831    0.0000 C   0  0  0  0  0  0  0  0  0  0  0  0
    0.1933    0.3866    0.0000 C   0  0  0  0  0  0  0  0  0  0  0  0
   -0.6110   -1.1425    0.0000 C   0  0  0  0  0  0  0  0  0  0  0  0
    1.4221   -0.3072    0.0000 C   0  0  0  0  0  0  0  0  0  0  0  0
    0.6075   -0.3210    0.0000 C   0  0  0  0  0  0  0  0  0  0  0  0
   -0.2002   -1.7949    0.0000 N   0  0  0  0  0  0  0  0  0  0  0  0
   -2.2298   -1.1736    0.0000 N   0  0  0  0  0  0  0  0  0  0  0  0
    1.8225    0.4073    0.0000 C   0  0  0  0  0  0  0  0  0  0  0  0
    0.5799    1.1011    0.0000 C   0  0  0  0  0  0  0  0  0  0  0  0
    3.8763    1.1598    0.0000 C   0  0  0  0  0  0  0  0  0  0  0  0
    1.4048    1.1115    0.0000 C   0  0  0  0  0  0  0  0  0  0  0  0
    4.7047    1.1633    0.0000 C   0  0  0  0  0  0  0  0  0  0  0  0
   -2.3023    0.3348    0.0000 O   0  0  0  0  0  0  0  0  0  0  0  0
    0.1933   -1.0355    0.0000 Br  0  0  0  0  0  0  0  0  0  0  0  0
   -3.0548   -1.1425    0.0000 C   0  0  0  0  0  0  0  0  0  0  0  0
    2.6474    0.4177    0.0000 O   0  0  0  0  0  0  0  0  0  0  0  0
    1.8087    1.8363    0.0000 O   0  0  0  0  0  0  0  0  0  0  0  0
    3.0513    1.1459    0.0000 C   0  0  0  0  0  0  0  0  0  0  0  0
   -3.5035   -1.8432    0.0000 C   0  0  0  0  0  0  0  0  0  0  0  0
   -3.4414   -0.4073    0.0000 C   0  0  0  0  0  0  0  0  0  0  0  0
    2.6371    1.8467    0.0000 C   0  0  0  0  0  0  0  0  0  0  0  0
   -4.3112   -1.8122    0.0000 C   0  0  0  0  0  0  0  0  0  0  0  0
   -4.2698   -0.3659    0.0000 C   0  0  0  0  0  0  0  0  0  0  0  0
   -4.7081   -1.0735    0.0000 C   0  0  0  0  0  0  0  0  0  0  0  0
  2  1  1  0  0  0  0
  3  1  2  0  0  0  0
  4  3  1  0  0  0  0
  5  1  1  0  0  0  0
  6  7  1  0  0  0  0
  6 10  2  0  0  0  0
  7  4  2  0  0  0  0
  8  5  3  0  0  0  0
  9  2  1  0  0  0  0
 10 13  1  0  0  0  0
 11  4  1  0  0  0  0
 12 20  1  0  0  0  0
 13 11  2  0  0  0  0
 14 12  3  0  0  0  0
 15  2  2  0  0  0  0
 16  7  1  0  0  0  0
 17  9  1  0  0  0  0
 18 10  1  0  0  0  0
 19 13  1  0  0  0  0
 20 18  1  0  0  0  0
 21 17  1  0  0  0  0
 22 17  2  0  0  0  0
 23 19  1  0  0  0  0
 24 21  2  0  0  0  0
 24 26  1  0  0  0  0
 25 22  1  0  0  0  0
 26 25  2  0  0  0  0
M  END
>  <CdId>
1766

>  <Mol Weight>
411.249

>  <Formula>
C20H15BrN2O3

>  <Click_ID>
CLK023G11 __  __  __

$$$$
CLK024B02 __  __  __
 OpenBabel03171423152D

 28 29  0  0  0  0  0  0  0  0999 V2000
   -0.6983   -1.0939    0.0000 C   0  0  0  0  0  0  0  0  0  0  0  0
   -2.1326   -1.1110    0.0000 O   0  0  0  0  0  0  0  0  0  0  0  0
   -2.8619   -0.6983    0.0000 C   0  0  0  0  0  0  0  0  0  0  0  0
   -3.5670   -1.1180    0.0000 C   0  0  0  0  0  0  0  0  0  0  0  0
    2.8550   -0.6123    0.0000 C   0  0  0  0  0  0  0  0  0  0  0  0
    2.1086    1.4447    0.0000 C   0  0  0  0  0  0  0  0  0  0  0  0
    2.1052    2.2703    0.0000 C   0  0  0  0  0  0  0  0  0  0  0  0
    0.7224   -1.0732    0.0000 N   0  0  0  0  0  0  0  0  0  0  0  0
   -1.4206   -0.6879    0.0000 C   0  0  3  0  0  0  0  0  0  0  0  0
    2.1533   -1.0457    0.0000 C   0  0  0  0  0  0  0  0  0  0  0  0
   -4.2825   -0.7086    0.0000 C   0  0  0  0  0  0  0  0  0  0  0  0
    0.0000   -0.6742    0.0000 N   0  0  0  0  0  0  0  0  0  0  0  0
   -0.6914   -1.9159    0.0000 O   0  0  0  0  0  0  0  0  0  0  0  0
    3.5808   -1.0078    0.0000 C   0  0  0  0  0  0  0  0  0  0  0  0
    1.4344   -0.6467    0.0000 C   0  0  0  0  0  0  0  0  0  0  0  0
   -2.8688    0.1238    0.0000 C   0  0  0  0  0  0  0  0  0  0  0  0
   -4.2894    0.1170    0.0000 C   0  0  0  0  0  0  0  0  0  0  0  0
   -3.5670   -1.9469    0.0000 Cl  0  0  0  0  0  0  0  0  0  0  0  0
    2.8310    0.2167    0.0000 O   0  0  0  0  0  0  0  0  0  0  0  0
   -3.5808    0.5366    0.0000 C   0  0  0  0  0  0  0  0  0  0  0  0
   -5.0118    0.5263    0.0000 Cl  0  0  0  0  0  0  0  0  0  0  0  0
    4.2860   -0.5710    0.0000 O   0  0  0  0  0  0  0  0  0  0  0  0
    2.1223    0.6157    0.0000 C   0  0  0  0  0  0  0  0  0  0  0  0
    2.1705   -1.8678    0.0000 C   0  0  0  0  0  0  0  0  0  0  0  0
    2.8929   -2.2668    0.0000 C   0  0  0  0  0  0  0  0  0  0  0  0
    3.6015   -1.8300    0.0000 C   0  0  0  0  0  0  0  0  0  0  0  0
   -1.4344    0.1376    0.0000 C   0  0  0  0  0  0  0  0  0  0  0  0
    5.0118   -0.9597    0.0000 C   0  0  0  0  0  0  0  0  0  0  0  0
  2  9  1  0  0  0  0
  3  2  1  0  0  0  0
  4  3  1  0  0  0  0
  5 10  1  0  0  0  0
  6 23  1  0  0  0  0
  7  6  3  0  0  0  0
  8 12  1  0  0  0  0
  9  1  1  0  0  0  0
 10 15  1  0  0  0  0
 11  4  2  0  0  0  0
 11 17  1  0  0  0  0
 12  1  1  0  0  0  0
 13  1  2  0  0  0  0
 14  5  2  0  0  0  0
 14 26  1  0  0  0  0
 15  8  2  0  0  0  0
 16  3  2  0  0  0  0
 17 20  2  0  0  0  0
 18  4  1  0  0  0  0
 19  5  1  0  0  0  0
 20 16  1  0  0  0  0
 21 17  1  0  0  0  0
 22 14  1  0  0  0  0
 23 19  1  0  0  0  0
 24 10  2  0  0  0  0
 25 24  1  0  0  0  0
 26 25  2  0  0  0  0
 27  9  1  0  0  0  0
 28 22  1  0  0  0  0
M  END
>  <CdId>
1787

>  <Mol Weight>
421.274

>  <Formula>
C20H18Cl2N2O4

>  <Click_ID>
CLK024B02 __  __  __

$$$$
CLK025A05 __  __  __
 OpenBabel03171423152D

 24 26  0  0  0  0  0  0  0  0999 V2000
    0.9586    0.3024    0.0000 C   0  0  0  0  0  0  0  0  0  0  0  0
    1.0410   -0.5119    0.0000 C   0  0  0  0  0  0  0  0  0  0  0  0
    1.8416   -0.6906    0.0000 N   0  0  0  0  0  0  0  0  0  0  0  0
    1.7042    0.6425    0.0000 C   0  0  0  0  0  0  0  0  0  0  0  0
    2.2539    0.0241    0.0000 C   0  0  0  0  0  0  0  0  0  0  0  0
    0.2439    0.7147    0.0000 N   0  0  0  0  0  0  0  0  0  0  0  0
    0.2439    1.5393    0.0000 N   0  0  0  0  0  0  0  0  0  0  0  0
   -0.4673    1.9516    0.0000 C   0  0  0  0  0  0  0  0  0  0  0  0
    1.6904   -2.1027    0.0000 C   0  0  0  0  0  0  0  0  0  0  0  0
    1.2128   -2.7727    0.0000 C   0  0  0  0  0  0  0  0  0  0  0  0
    0.4294   -1.0617    0.0000 O   0  0  0  0  0  0  0  0  0  0  0  0
   -1.1819    1.5393    0.0000 C   0  0  0  0  0  0  0  0  0  0  0  0
    2.1817   -1.4396    0.0000 C   0  0  0  0  0  0  0  0  0  0  0  0
   -0.4673    2.7761    0.0000 O   0  0  0  0  0  0  0  0  0  0  0  0
   -1.9069    1.9619    0.0000 C   0  0  0  0  0  0  0  0  0  0  0  0
   -1.1819    0.7112    0.0000 C   0  0  0  0  0  0  0  0  0  0  0  0
   -2.6112    0.7112    0.0000 C   0  0  0  0  0  0  0  0  0  0  0  0
    1.9652    1.4259    0.0000 C   0  0  0  0  0  0  0  0  0  0  0  0
   -1.9069    0.2989    0.0000 C   0  0  0  0  0  0  0  0  0  0  0  0
   -2.6112    1.5393    0.0000 C   0  0  0  0  0  0  0  0  0  0  0  0
   -3.3258    0.2989    0.0000 F   0  0  0  0  0  0  0  0  0  0  0  0
    3.0648    0.1924    0.0000 C   0  0  0  0  0  0  0  0  0  0  0  0
    2.7727    1.5908    0.0000 C   0  0  0  0  0  0  0  0  0  0  0  0
    3.3224    0.9860    0.0000 C   0  0  0  0  0  0  0  0  0  0  0  0
  2  1  1  0  0  0  0
  3  2  1  0  0  0  0
  4  1  1  0  0  0  0
  5  4  2  0  0  0  0
  5  3  1  0  0  0  0
  6  1  2  0  0  0  0
  7  6  1  0  0  0  0
  8  7  1  0  0  0  0
  9 13  1  0  0  0  0
 10  9  3  0  0  0  0
 11  2  2  0  0  0  0
 12  8  1  0  0  0  0
 13  3  1  0  0  0  0
 14  8  2  0  0  0  0
 15 12  1  0  0  0  0
 16 12  2  0  0  0  0
 17 19  2  0  0  0  0
 17 20  1  0  0  0  0
 18  4  1  0  0  0  0
 19 16  1  0  0  0  0
 20 15  2  0  0  0  0
 21 17  1  0  0  0  0
 22  5  1  0  0  0  0
 23 18  2  0  0  0  0
 24 23  1  0  0  0  0
 24 22  2  0  0  0  0
M  END
>  <CdId>
1860

>  <Mol Weight>
321.3052

>  <Formula>
C18H12FN3O2

>  <Click_ID>
CLK025A05 __  __  __

$$$$
CLK025B05 __  __  __
 OpenBabel03171423152D

 25 27  0  0  0  0  0  0  0  0999 V2000
    1.3149    0.9019    0.0000 C   0  0  0  0  0  0  0  0  0  0  0  0
    1.3975    0.0758    0.0000 C   0  0  0  0  0  0  0  0  0  0  0  0
    2.2099   -0.0998    0.0000 N   0  0  0  0  0  0  0  0  0  0  0  0
    2.0721    1.2288    0.0000 C   0  0  0  0  0  0  0  0  0  0  0  0
    2.6195    0.6161    0.0000 C   0  0  0  0  0  0  0  0  0  0  0  0
    0.5989    1.3115    0.0000 N   0  0  0  0  0  0  0  0  0  0  0  0
   -1.5455    0.9019    0.0000 C   0  0  0  0  0  0  0  0  0  0  0  0
   -0.8330    1.3115    0.0000 C   0  0  0  0  0  0  0  0  0  0  0  0
   -1.5455    0.0654    0.0000 C   0  0  0  0  0  0  0  0  0  0  0  0
   -0.1171    0.9019    0.0000 N   0  0  0  0  0  0  0  0  0  0  0  0
    2.0584   -1.5215    0.0000 C   0  0  0  0  0  0  0  0  0  0  0  0
   -2.2615    1.3115    0.0000 C   0  0  0  0  0  0  0  0  0  0  0  0
    1.5765   -2.1824    0.0000 C   0  0  0  0  0  0  0  0  0  0  0  0
   -2.2615   -0.3476    0.0000 C   0  0  0  0  0  0  0  0  0  0  0  0
    0.7917   -0.4750    0.0000 O   0  0  0  0  0  0  0  0  0  0  0  0
    2.5472   -0.8468    0.0000 C   0  0  0  0  0  0  0  0  0  0  0  0
   -0.8330    2.1376    0.0000 O   0  0  0  0  0  0  0  0  0  0  0  0
   -2.9775    0.0654    0.0000 C   0  0  0  0  0  0  0  0  0  0  0  0
   -0.8330   -0.3476    0.0000 Cl  0  0  0  0  0  0  0  0  0  0  0  0
   -2.9775    0.9019    0.0000 C   0  0  0  0  0  0  0  0  0  0  0  0
    2.3269    2.0137    0.0000 C   0  0  0  0  0  0  0  0  0  0  0  0
   -3.6934   -0.3476    0.0000 Cl  0  0  0  0  0  0  0  0  0  0  0  0
    3.4319    0.7917    0.0000 C   0  0  0  0  0  0  0  0  0  0  0  0
    3.1289    2.1857    0.0000 C   0  0  0  0  0  0  0  0  0  0  0  0
    3.6900    1.5731    0.0000 C   0  0  0  0  0  0  0  0  0  0  0  0
  2  1  1  0  0  0  0
  3  2  1  0  0  0  0
  3  5  1  0  0  0  0
  4  1  1  0  0  0  0
  5  4  2  0  0  0  0
  6  1  2  0  0  0  0
  7  8  1  0  0  0  0
  8 10  1  0  0  0  0
  9  7  2  0  0  0  0
 10  6  1  0  0  0  0
 11 16  1  0  0  0  0
 12  7  1  0  0  0  0
 13 11  3  0  0  0  0
 14  9  1  0  0  0  0
 14 18  2  0  0  0  0
 15  2  2  0  0  0  0
 16  3  1  0  0  0  0
 17  8  2  0  0  0  0
 18 20  1  0  0  0  0
 19  9  1  0  0  0  0
 20 12  2  0  0  0  0
 21  4  1  0  0  0  0
 22 18  1  0  0  0  0
 23  5  1  0  0  0  0
 23 25  2  0  0  0  0
 24 21  2  0  0  0  0
 25 24  1  0  0  0  0
M  END
>  <CdId>
1870

>  <Mol Weight>
372.205

>  <Formula>
C18H11Cl2N3O2

>  <Click_ID>
CLK025B05 __  __  __

$$$$
CLK025C04 __  __  __
 OpenBabel03171423152D

 27 29  0  0  0  0  0  0  0  0999 V2000
    1.1818   -0.7077    0.0000 C   0  0  0  0  0  0  0  0  0  0  0  0
    1.7006   -1.3537    0.0000 C   0  0  0  0  0  0  0  0  0  0  0  0
    1.6319   -0.0206    0.0000 C   0  0  0  0  0  0  0  0  0  0  0  0
    2.4702   -1.0581    0.0000 N   0  0  0  0  0  0  0  0  0  0  0  0
    2.4289   -0.2336    0.0000 C   0  0  0  0  0  0  0  0  0  0  0  0
    0.3573   -0.7559    0.0000 N   0  0  0  0  0  0  0  0  0  0  0  0
   -1.0719   -0.7559    0.0000 C   0  0  0  0  0  0  0  0  0  0  0  0
   -0.3573   -0.3436    0.0000 N   0  0  0  0  0  0  0  0  0  0  0  0
    3.8994   -1.1338    0.0000 C   0  0  0  0  0  0  0  0  0  0  0  0
    3.0096    0.3504    0.0000 C   0  0  0  0  0  0  0  0  0  0  0  0
    4.6312   -0.7559    0.0000 C   0  0  0  0  0  0  0  0  0  0  0  0
    1.4155    0.7765    0.0000 C   0  0  0  0  0  0  0  0  0  0  0  0
    1.4842   -2.1507    0.0000 O   0  0  0  0  0  0  0  0  0  0  0  0
    3.1607   -1.5048    0.0000 C   0  0  0  0  0  0  0  0  0  0  0  0
   -1.0719   -1.5804    0.0000 O   0  0  0  0  0  0  0  0  0  0  0  0
   -3.2157    0.4810    0.0000 C   0  0  0  0  0  0  0  0  0  0  0  0
   -1.7865   -0.3436    0.0000 C   0  0  0  0  0  0  0  0  0  0  0  0
   -1.7865    0.4810    0.0000 O   0  0  0  0  0  0  0  0  0  0  0  0
    1.9927    1.3605    0.0000 C   0  0  0  0  0  0  0  0  0  0  0  0
   -2.5011    0.8932    0.0000 C   0  0  0  0  0  0  0  0  0  0  0  0
    2.7897    1.1509    0.0000 C   0  0  0  0  0  0  0  0  0  0  0  0
   -3.9304    0.8932    0.0000 C   0  0  0  0  0  0  0  0  0  0  0  0
    1.7831    2.1541    0.0000 Br  0  0  0  0  0  0  0  0  0  0  0  0
   -4.6346    0.4913    0.0000 Cl  0  0  0  0  0  0  0  0  0  0  0  0
   -3.2054    2.1300    0.0000 C   0  0  0  0  0  0  0  0  0  0  0  0
   -2.4908    1.7178    0.0000 C   0  0  0  0  0  0  0  0  0  0  0  0
   -3.9304    1.7178    0.0000 C   0  0  0  0  0  0  0  0  0  0  0  0
  2  1  1  0  0  0  0
  3  1  1  0  0  0  0
  4  2  1  0  0  0  0
  4  5  1  0  0  0  0
  5  3  2  0  0  0  0
  6  1  2  0  0  0  0
  7  8  1  0  0  0  0
  8  6  1  0  0  0  0
  9 14  1  0  0  0  0
 10  5  1  0  0  0  0
 10 21  2  0  0  0  0
 11  9  3  0  0  0  0
 12  3  1  0  0  0  0
 13  2  2  0  0  0  0
 14  4  1  0  0  0  0
 15  7  2  0  0  0  0
 16 20  2  0  0  0  0
 17  7  1  0  0  0  0
 18 17  1  0  0  0  0
 19 12  2  0  0  0  0
 20 18  1  0  0  0  0
 21 19  1  0  0  0  0
 22 16  1  0  0  0  0
 23 19  1  0  0  0  0
 24 22  1  0  0  0  0
 25 26  2  0  0  0  0
 26 20  1  0  0  0  0
 27 25  1  0  0  0  0
 27 22  2  0  0  0  0
M  END
>  <CdId>
1879

>  <Mol Weight>
446.682

>  <Formula>
C19H13BrClN3O3

>  <Click_ID>
CLK025C04 __  __  __

$$$$
CLK025D04 __  __  __
 OpenBabel03171423152D

 26 28  0  0  0  0  0  0  0  0999 V2000
    2.0322    0.8975    0.0000 C   0  0  0  0  0  0  0  0  0  0  0  0
    2.1148    0.0825    0.0000 C   0  0  0  0  0  0  0  0  0  0  0  0
    2.9229   -0.0928    0.0000 N   0  0  0  0  0  0  0  0  0  0  0  0
    2.7853    1.2379    0.0000 C   0  0  0  0  0  0  0  0  0  0  0  0
    3.3320    0.6190    0.0000 C   0  0  0  0  0  0  0  0  0  0  0  0
    1.3204    1.3101    0.0000 N   0  0  0  0  0  0  0  0  0  0  0  0
   -0.1100    1.3101    0.0000 C   0  0  0  0  0  0  0  0  0  0  0  0
    0.6052    0.8975    0.0000 N   0  0  0  0  0  0  0  0  0  0  0  0
    2.7715   -1.5096    0.0000 C   0  0  0  0  0  0  0  0  0  0  0  0
    2.2798   -2.1801    0.0000 C   0  0  0  0  0  0  0  0  0  0  0  0
    1.4958   -0.4745    0.0000 O   0  0  0  0  0  0  0  0  0  0  0  0
    3.2564   -0.8494    0.0000 C   0  0  0  0  0  0  0  0  0  0  0  0
   -0.1100    2.1354    0.0000 O   0  0  0  0  0  0  0  0  0  0  0  0
   -2.9710    1.3204    0.0000 C   0  0  0  0  0  0  0  0  0  0  0  0
   -0.8218    0.8975    0.0000 C   0  0  0  0  0  0  0  0  0  0  0  0
   -1.5371    1.3101    0.0000 O   0  0  0  0  0  0  0  0  0  0  0  0
   -2.2523    0.8975    0.0000 C   0  0  0  0  0  0  0  0  0  0  0  0
   -3.6793    0.8975    0.0000 C   0  0  0  0  0  0  0  0  0  0  0  0
    3.0363    2.0219    0.0000 C   0  0  0  0  0  0  0  0  0  0  0  0
   -4.3981    1.3101    0.0000 Cl  0  0  0  0  0  0  0  0  0  0  0  0
    4.1332    0.7909    0.0000 C   0  0  0  0  0  0  0  0  0  0  0  0
   -2.9710   -0.3404    0.0000 C   0  0  0  0  0  0  0  0  0  0  0  0
   -2.2523    0.0687    0.0000 C   0  0  0  0  0  0  0  0  0  0  0  0
   -3.6793    0.0687    0.0000 C   0  0  0  0  0  0  0  0  0  0  0  0
    3.8444    2.1835    0.0000 C   0  0  0  0  0  0  0  0  0  0  0  0
    4.3946    1.5715    0.0000 C   0  0  0  0  0  0  0  0  0  0  0  0
  2  1  1  0  0  0  0
  3  2  1  0  0  0  0
  3  5  1  0  0  0  0
  4  1  1  0  0  0  0
  5  4  2  0  0  0  0
  6  1  2  0  0  0  0
  7  8  1  0  0  0  0
  8  6  1  0  0  0  0
  9 12  1  0  0  0  0
 10  9  3  0  0  0  0
 11  2  2  0  0  0  0
 12  3  1  0  0  0  0
 13  7  2  0  0  0  0
 14 17  1  0  0  0  0
 15  7  1  0  0  0  0
 16 15  1  0  0  0  0
 17 16  1  0  0  0  0
 18 14  2  0  0  0  0
 18 24  1  0  0  0  0
 19  4  1  0  0  0  0
 20 18  1  0  0  0  0
 21  5  1  0  0  0  0
 21 26  2  0  0  0  0
 22 23  1  0  0  0  0
 23 17  2  0  0  0  0
 24 22  2  0  0  0  0
 25 19  2  0  0  0  0
 26 25  1  0  0  0  0
M  END
>  <CdId>
1889

>  <Mol Weight>
367.786

>  <Formula>
C19H14ClN3O3

>  <Click_ID>
CLK025D04 __  __  __

$$$$
CLK025E02 __  __  __
 OpenBabel03171423152D

 22 23  0  0  0  0  0  0  0  0999 V2000
   -3.8678    0.4744    0.0000 C   0  0  0  0  0  0  0  0  0  0  0  0
   -3.2352    1.0108    0.0000 C   0  0  0  0  0  0  0  0  0  0  0  0
   -2.5614    0.5363    0.0000 C   0  0  0  0  0  0  0  0  0  0  0  0
    3.8643    0.3988    0.0000 C   0  0  0  0  0  0  0  0  0  0  0  0
    4.5417   -0.0722    0.0000 C   0  0  0  0  0  0  0  0  0  0  0  0
   -1.1449    0.4126    0.0000 N   0  0  0  0  0  0  0  0  0  0  0  0
   -4.5073   -0.0516    0.0000 O   0  0  0  0  0  0  0  0  0  0  0  0
   -3.1699    0.0378    0.0000 O   0  0  0  0  0  0  0  0  0  0  0  0
   -1.8118    0.8870    0.0000 N   0  0  0  0  0  0  0  0  0  0  0  0
   -2.6369   -0.2888    0.0000 O   0  0  0  0  0  0  0  0  0  0  0  0
   -0.3954    0.7632    0.0000 C   0  0  0  0  0  0  0  0  0  0  0  0
    1.0246    0.6360    0.0000 C   0  0  0  0  0  0  0  0  0  0  0  0
    0.2785    0.2853    0.0000 C   0  0  0  0  0  0  0  0  0  0  0  0
    1.6984    0.1650    0.0000 C   0  0  0  0  0  0  0  0  0  0  0  0
    3.1149    0.0481    0.0000 C   0  0  0  0  0  0  0  0  0  0  0  0
    2.4410    0.5157    0.0000 O   0  0  0  0  0  0  0  0  0  0  0  0
   -4.5451    0.9627    0.0000 C   0  0  0  0  0  0  0  0  0  0  0  0
    0.8802   -1.0073    0.0000 C   0  0  0  0  0  0  0  0  0  0  0  0
   -3.3830   -0.7632    0.0000 C   0  0  0  0  0  0  0  0  0  0  0  0
   -4.1978   -0.8113    0.0000 C   0  0  0  0  0  0  0  0  0  0  0  0
    0.2028   -0.5363    0.0000 C   0  0  0  0  0  0  0  0  0  0  0  0
    1.6296   -0.6636    0.0000 C   0  0  0  0  0  0  0  0  0  0  0  0
  2  1  1  0  0  0  0
  3  2  1  0  0  0  0
  4 15  1  0  0  0  0
  5  4  3  0  0  0  0
  6  9  1  0  0  0  0
  7  1  1  0  0  0  0
  8  1  1  0  0  0  0
  9  3  1  0  0  0  0
 10  3  2  0  0  0  0
 11  6  2  0  0  0  0
 12 13  1  0  0  0  0
 13 11  1  0  0  0  0
 14 12  2  0  0  0  0
 15 16  1  0  0  0  0
 16 14  1  0  0  0  0
 17  1  1  0  0  0  0
 18 21  1  0  0  0  0
 19  8  1  0  0  0  0
 20  7  1  0  0  0  0
 20 19  1  0  0  0  0
 21 13  2  0  0  0  0
 22 18  2  0  0  0  0
 22 14  1  0  0  0  0
M  END
>  <CdId>
1897

>  <Mol Weight>
302.3251

>  <Formula>
C16H18N2O4

>  <Click_ID>
CLK025E02 __  __  __

$$$$
CLK025E03 __  __  __
 OpenBabel03171423152D

 23 25  0  0  0  0  0  0  0  0999 V2000
    1.1963    0.4263    0.0000 C   0  0  0  0  0  0  0  0  0  0  0  0
    1.1756   -0.3884    0.0000 C   0  0  0  0  0  0  0  0  0  0  0  0
    1.9353   -0.6772    0.0000 N   0  0  0  0  0  0  0  0  0  0  0  0
   -1.6362    0.7734    0.0000 C   0  0  0  0  0  0  0  0  0  0  0  0
    1.9868    0.6600    0.0000 C   0  0  0  0  0  0  0  0  0  0  0  0
    2.4475   -0.0138    0.0000 C   0  0  0  0  0  0  0  0  0  0  0  0
    0.5363    0.9213    0.0000 N   0  0  0  0  0  0  0  0  0  0  0  0
   -1.8975   -0.0103    0.0000 N   0  0  0  0  0  0  0  0  0  0  0  0
   -0.8731    1.0966    0.0000 C   0  0  0  0  0  0  0  0  0  0  0  0
   -2.2997    1.2581    0.0000 C   0  0  0  0  0  0  0  0  0  0  0  0
   -2.7225   -0.0035    0.0000 N   0  0  0  0  0  0  0  0  0  0  0  0
   -0.2166    0.6016    0.0000 N   0  0  0  0  0  0  0  0  0  0  0  0
    2.9494   -1.6878    0.0000 C   0  0  0  0  0  0  0  0  0  0  0  0
   -2.9632    0.7838    0.0000 C   0  0  0  0  0  0  0  0  0  0  0  0
    3.7469   -1.9078    0.0000 C   0  0  0  0  0  0  0  0  0  0  0  0
    0.4882   -0.8628    0.0000 O   0  0  0  0  0  0  0  0  0  0  0  0
   -0.7734    1.9113    0.0000 O   0  0  0  0  0  0  0  0  0  0  0  0
    2.1553   -1.4747    0.0000 C   0  0  0  0  0  0  0  0  0  0  0  0
    2.3478    1.4093    0.0000 C   0  0  0  0  0  0  0  0  0  0  0  0
    3.2794    0.0481    0.0000 C   0  0  0  0  0  0  0  0  0  0  0  0
   -3.7503    1.0587    0.0000 C   0  0  0  0  0  0  0  0  0  0  0  0
    3.1728    1.4712    0.0000 C   0  0  0  0  0  0  0  0  0  0  0  0
    3.6335    0.7838    0.0000 C   0  0  0  0  0  0  0  0  0  0  0  0
  2  1  1  0  0  0  0
  3  2  1  0  0  0  0
  4  9  1  0  0  0  0
  5  1  1  0  0  0  0
  6  5  2  0  0  0  0
  6  3  1  0  0  0  0
  7  1  2  0  0  0  0
  8  4  1  0  0  0  0
  9 12  1  0  0  0  0
 10  4  2  0  0  0  0
 11  8  1  0  0  0  0
 11 14  2  0  0  0  0
 12  7  1  0  0  0  0
 13 18  1  0  0  0  0
 14 10  1  0  0  0  0
 15 13  3  0  0  0  0
 16  2  2  0  0  0  0
 17  9  2  0  0  0  0
 18  3  1  0  0  0  0
 19  5  1  0  0  0  0
 20  6  1  0  0  0  0
 21 14  1  0  0  0  0
 22 19  2  0  0  0  0
 23 22  1  0  0  0  0
 23 20  2  0  0  0  0
M  END
>  <CdId>
1898

>  <Mol Weight>
307.3067

>  <Formula>
C16H13N5O2

>  <Click_ID>
CLK025E03 __  __  __

$$$$
CLK025G04 __  __  __
 OpenBabel03171423152D

 19 20  0  0  0  0  0  0  0  0999 V2000
   -2.4818   -1.4850    0.0000 C   0  0  0  0  0  0  0  0  0  0  0  0
   -0.3438    0.6188    0.0000 C   0  0  0  0  0  0  0  0  0  0  0  0
   -2.4818   -2.3100    0.0000 C   0  0  0  0  0  0  0  0  0  0  0  0
    0.3541    1.0519    0.0000 C   0  0  0  0  0  0  0  0  0  0  0  0
   -1.0690    1.0244    0.0000 N   0  0  0  0  0  0  0  0  0  0  0  0
    1.0657    0.6497    0.0000 C   0  0  0  0  0  0  0  0  0  0  0  0
   -1.7806    0.6016    0.0000 C   0  0  0  0  0  0  0  0  0  0  0  0
   -0.3438   -0.1994    0.0000 O   0  0  0  0  0  0  0  0  0  0  0  0
   -2.4818   -0.6565    0.0000 C   0  0  0  0  0  0  0  0  0  0  0  0
   -1.7703   -0.2234    0.0000 C   0  0  0  0  0  0  0  0  0  0  0  0
    1.7738    1.0760    0.0000 C   0  0  0  0  0  0  0  0  0  0  0  0
   -3.2175    0.5775    0.0000 C   0  0  0  0  0  0  0  0  0  0  0  0
   -2.5197    1.0038    0.0000 C   0  0  0  0  0  0  0  0  0  0  0  0
   -3.1934   -0.2475    0.0000 C   0  0  0  0  0  0  0  0  0  0  0  0
    2.4991    0.6635    0.0000 C   0  0  0  0  0  0  0  0  0  0  0  0
    1.7772    1.8907    0.0000 C   0  0  0  0  0  0  0  0  0  0  0  0
    3.2140    1.0897    0.0000 C   0  0  0  0  0  0  0  0  0  0  0  0
    2.4853    2.3135    0.0000 C   0  0  0  0  0  0  0  0  0  0  0  0
    3.1969    1.9043    0.0000 C   0  0  0  0  0  0  0  0  0  0  0  0
  2  5  1  0  0  0  0
  3  1  3  0  0  0  0
  4  2  1  0  0  0  0
  5  7  1  0  0  0  0
  6  4  2  0  0  0  0
  7 10  2  0  0  0  0
  8  2  2  0  0  0  0
  9  1  1  0  0  0  0
 10  9  1  0  0  0  0
 11  6  1  0  0  0  0
 12 14  1  0  0  0  0
 13 12  2  0  0  0  0
 13  7  1  0  0  0  0
 14  9  2  0  0  0  0
 15 11  2  0  0  0  0
 16 11  1  0  0  0  0
 17 15  1  0  0  0  0
 17 19  2  0  0  0  0
 18 16  2  0  0  0  0
 19 18  1  0  0  0  0
M  END
>  <CdId>
1919

>  <Mol Weight>
247.2912

>  <Formula>
C17H13NO

>  <Click_ID>
CLK025G04 __  __  __

$$$$
CLK025H02 __  __  __
 OpenBabel03171423152D

 16 17  0  0  0  0  0  0  0  0999 V2000
   -0.2581    0.0688    0.0000 C   0  0  0  0  0  0  0  0  0  0  0  0
   -0.9738   -0.3475    0.0000 C   0  0  0  0  0  0  0  0  0  0  0  0
    1.9958    0.8878    0.0000 C   0  0  0  0  0  0  0  0  0  0  0  0
    2.3983    1.5966    0.0000 C   0  0  0  0  0  0  0  0  0  0  0  0
    0.4542   -0.3475    0.0000 C   0  0  0  0  0  0  0  0  0  0  0  0
   -0.2581    0.8912    0.0000 C   0  0  0  0  0  0  0  0  0  0  0  0
   -0.9738   -1.1803    0.0000 C   0  0  0  0  0  0  0  0  0  0  0  0
    0.4542   -1.1803    0.0000 C   0  0  0  0  0  0  0  0  0  0  0  0
   -0.2581   -1.5897    0.0000 C   0  0  0  0  0  0  0  0  0  0  0  0
    0.4611    1.3110    0.0000 O   0  0  0  0  0  0  0  0  0  0  0  0
    1.1733    0.0654    0.0000 O   0  0  0  0  0  0  0  0  0  0  0  0
    1.1733    0.8878    0.0000 C   0  0  0  0  0  0  0  0  0  0  0  0
   -1.6826    0.0654    0.0000 C   0  0  0  0  0  0  0  0  0  0  0  0
   -1.6826   -1.5932    0.0000 C   0  0  0  0  0  0  0  0  0  0  0  0
   -2.4017   -0.3475    0.0000 C   0  0  0  0  0  0  0  0  0  0  0  0
   -2.4017   -1.1803    0.0000 C   0  0  0  0  0  0  0  0  0  0  0  0
  2  1  1  0  0  0  0
  3 12  1  0  0  0  0
  4  3  3  0  0  0  0
  5  1  2  0  0  0  0
  6  1  1  0  0  0  0
  7  2  1  0  0  0  0
  8  5  1  0  0  0  0
  9  8  2  0  0  0  0
  9  7  1  0  0  0  0
 10  6  2  0  0  0  0
 11  5  1  0  0  0  0
 12 11  1  0  0  0  0
 13  2  2  0  0  0  0
 14  7  2  0  0  0  0
 15 13  1  0  0  0  0
 16 15  2  0  0  0  0
 16 14  1  0  0  0  0
M  END
>  <CdId>
1927

>  <Mol Weight>
210.228

>  <Formula>
C14H10O2

>  <Click_ID>
CLK025H02 __  __  __

$$$$
CLK025H03 __  __  __
 OpenBabel03171423152D

 28 30  0  0  0  0  0  0  0  0999 V2000
    1.3129   -0.8008    0.0000 C   0  0  0  0  0  0  0  0  0  0  0  0
    2.0621   -1.1342    0.0000 C   0  0  0  0  0  0  0  0  0  0  0  0
    1.3954    0.0206    0.0000 C   0  0  0  0  0  0  0  0  0  0  0  0
    2.6189   -0.5155    0.0000 N   0  0  0  0  0  0  0  0  0  0  0  0
    2.2064    0.1994    0.0000 C   0  0  0  0  0  0  0  0  0  0  0  0
    0.5980   -1.2029    0.0000 N   0  0  0  0  0  0  0  0  0  0  0  0
   -0.8351   -1.2029    0.0000 C   0  0  0  0  0  0  0  0  0  0  0  0
   -0.1203   -0.7904    0.0000 N   0  0  0  0  0  0  0  0  0  0  0  0
    3.9180    0.0619    0.0000 C   0  0  0  0  0  0  0  0  0  0  0  0
    2.4539    0.9830    0.0000 C   0  0  0  0  0  0  0  0  0  0  0  0
   -2.9797    0.0344    0.0000 C   0  0  0  0  0  0  0  0  0  0  0  0
    4.4060    0.7252    0.0000 C   0  0  0  0  0  0  0  0  0  0  0  0
    0.8455    0.6392    0.0000 C   0  0  0  0  0  0  0  0  0  0  0  0
   -3.6946    0.4468    0.0000 C   0  0  0  0  0  0  0  0  0  0  0  0
    2.2339   -1.9418    0.0000 O   0  0  0  0  0  0  0  0  0  0  0  0
   -2.2648    0.4468    0.0000 C   0  0  0  0  0  0  0  0  0  0  0  0
   -1.5500    0.0344    0.0000 O   0  0  0  0  0  0  0  0  0  0  0  0
    3.4368   -0.6083    0.0000 C   0  0  0  0  0  0  0  0  0  0  0  0
   -0.8351   -2.0277    0.0000 O   0  0  0  0  0  0  0  0  0  0  0  0
   -1.5500   -0.7904    0.0000 C   0  0  0  0  0  0  0  0  0  0  0  0
   -2.2648    1.2717    0.0000 C   0  0  0  0  0  0  0  0  0  0  0  0
   -3.6946    1.2717    0.0000 C   0  0  0  0  0  0  0  0  0  0  0  0
    1.0998    1.4228    0.0000 C   0  0  0  0  0  0  0  0  0  0  0  0
   -2.9797   -0.7904    0.0000 Cl  0  0  0  0  0  0  0  0  0  0  0  0
    1.9040    1.5913    0.0000 C   0  0  0  0  0  0  0  0  0  0  0  0
   -2.9797    1.6841    0.0000 C   0  0  0  0  0  0  0  0  0  0  0  0
   -4.4094    1.6841    0.0000 Cl  0  0  0  0  0  0  0  0  0  0  0  0
    0.5499    2.0312    0.0000 Br  0  0  0  0  0  0  0  0  0  0  0  0
  2  1  1  0  0  0  0
  3  1  1  0  0  0  0
  4  2  1  0  0  0  0
  4  5  1  0  0  0  0
  5  3  2  0  0  0  0
  6  1  2  0  0  0  0
  7  8  1  0  0  0  0
  8  6  1  0  0  0  0
  9 18  1  0  0  0  0
 10  5  1  0  0  0  0
 10 25  2  0  0  0  0
 11 16  2  0  0  0  0
 12  9  3  0  0  0  0
 13  3  1  0  0  0  0
 14 11  1  0  0  0  0
 15  2  2  0  0  0  0
 16 17  1  0  0  0  0
 17 20  1  0  0  0  0
 18  4  1  0  0  0  0
 19  7  2  0  0  0  0
 20  7  1  0  0  0  0
 21 16  1  0  0  0  0
 22 26  1  0  0  0  0
 22 14  2  0  0  0  0
 23 13  2  0  0  0  0
 24 11  1  0  0  0  0
 25 23  1  0  0  0  0
 26 21  2  0  0  0  0
 27 22  1  0  0  0  0
 28 23  1  0  0  0  0
M  END
>  <CdId>
1928

>  <Mol Weight>
481.127

>  <Formula>
C19H12BrCl2N3O3

>  <Click_ID>
CLK025H03 __  __  __

$$$$
CLK025H04 __  __  __
 OpenBabel03171423152D

 26 28  0  0  0  0  0  0  0  0999 V2000
    1.3158    0.3024    0.0000 C   0  0  0  0  0  0  0  0  0  0  0  0
    1.3982   -0.5119    0.0000 C   0  0  0  0  0  0  0  0  0  0  0  0
    2.1987   -0.6905    0.0000 N   0  0  0  0  0  0  0  0  0  0  0  0
    2.0613    0.6425    0.0000 C   0  0  0  0  0  0  0  0  0  0  0  0
    2.6110    0.0241    0.0000 C   0  0  0  0  0  0  0  0  0  0  0  0
   -2.9683    0.2989    0.0000 N   0  3  0  0  0  0  0  0  0  0  0  0
    0.6012    0.7146    0.0000 N   0  0  0  0  0  0  0  0  0  0  0  0
    0.6012    1.5391    0.0000 N   0  0  0  0  0  0  0  0  0  0  0  0
   -0.1099    1.9514    0.0000 C   0  0  0  0  0  0  0  0  0  0  0  0
    2.0475   -2.1025    0.0000 C   0  0  0  0  0  0  0  0  0  0  0  0
   -2.2537    0.7111    0.0000 C   0  0  0  0  0  0  0  0  0  0  0  0
    1.5666   -2.7724    0.0000 C   0  0  0  0  0  0  0  0  0  0  0  0
   -3.6829    0.7111    0.0000 O   0  5  0  0  0  0  0  0  0  0  0  0
    0.7868   -1.0616    0.0000 O   0  0  0  0  0  0  0  0  0  0  0  0
   -2.9683   -0.5256    0.0000 O   0  0  0  0  0  0  0  0  0  0  0  0
   -0.8245    1.5391    0.0000 C   0  0  0  0  0  0  0  0  0  0  0  0
    2.5389   -1.4394    0.0000 C   0  0  0  0  0  0  0  0  0  0  0  0
   -0.1099    2.7759    0.0000 O   0  0  0  0  0  0  0  0  0  0  0  0
   -1.5494    0.2989    0.0000 C   0  0  0  0  0  0  0  0  0  0  0  0
   -2.2537    1.5391    0.0000 C   0  0  0  0  0  0  0  0  0  0  0  0
   -0.8245    0.7111    0.0000 C   0  0  0  0  0  0  0  0  0  0  0  0
   -1.5494    1.9617    0.0000 C   0  0  0  0  0  0  0  0  0  0  0  0
    2.3224    1.4258    0.0000 C   0  0  0  0  0  0  0  0  0  0  0  0
    3.4218    0.1924    0.0000 C   0  0  0  0  0  0  0  0  0  0  0  0
    3.1297    1.5907    0.0000 C   0  0  0  0  0  0  0  0  0  0  0  0
    3.6794    0.9860    0.0000 C   0  0  0  0  0  0  0  0  0  0  0  0
  2  1  1  0  0  0  0
  3  2  1  0  0  0  0
  4  1  1  0  0  0  0
  5  4  2  0  0  0  0
  5  3  1  0  0  0  0
  6 11  1  0  0  0  0
  7  1  2  0  0  0  0
  8  7  1  0  0  0  0
  9  8  1  0  0  0  0
 10 17  1  0  0  0  0
 11 20  1  0  0  0  0
 12 10  3  0  0  0  0
 13  6  1  0  0  0  0
 14  2  2  0  0  0  0
 15  6  2  0  0  0  0
 16  9  1  0  0  0  0
 17  3  1  0  0  0  0
 18  9  2  0  0  0  0
 19 21  1  0  0  0  0
 19 11  2  0  0  0  0
 20 22  2  0  0  0  0
 21 16  2  0  0  0  0
 22 16  1  0  0  0  0
 23  4  1  0  0  0  0
 24  5  1  0  0  0  0
 25 23  2  0  0  0  0
 26 25  1  0  0  0  0
 26 24  2  0  0  0  0
M  CHG  2   6   1  13  -1
M  END
>  <CdId>
1929

>  <Mol Weight>
348.3123

>  <Formula>
C18H12N4O4

>  <Click_ID>
CLK025H04 __  __  __

$$$$
CLK025H05 __  __  __
 OpenBabel03171423152D

 25 27  0  0  0  0  0  0  0  0999 V2000
    1.7591   -0.8092    0.0000 C   0  0  0  0  0  0  0  0  0  0  0  0
    1.8928    0.0035    0.0000 C   0  0  0  0  0  0  0  0  0  0  0  0
    2.6883    0.1166    0.0000 N   0  0  0  0  0  0  0  0  0  0  0  0
    2.4826   -1.1864    0.0000 C   0  0  0  0  0  0  0  0  0  0  0  0
    3.0620   -0.6069    0.0000 C   0  0  0  0  0  0  0  0  0  0  0  0
    1.0219   -1.1933    0.0000 N   0  0  0  0  0  0  0  0  0  0  0  0
    2.5957    1.5568    0.0000 C   0  0  0  0  0  0  0  0  0  0  0  0
    0.3223   -0.7441    0.0000 N   0  0  0  0  0  0  0  0  0  0  0  0
    2.1328    2.2528    0.0000 C   0  0  0  0  0  0  0  0  0  0  0  0
   -0.4115   -1.1213    0.0000 C   0  0  0  0  0  0  0  0  0  0  0  0
    1.3338    0.5966    0.0000 O   0  0  0  0  0  0  0  0  0  0  0  0
    3.0587    0.8641    0.0000 C   0  0  0  0  0  0  0  0  0  0  0  0
   -0.4595   -1.9442    0.0000 O   0  0  0  0  0  0  0  0  0  0  0  0
   -1.1042   -0.6721    0.0000 C   0  0  0  0  0  0  0  0  0  0  0  0
   -1.8379   -1.0493    0.0000 C   0  0  0  0  0  0  0  0  0  0  0  0
   -3.3158   -1.7967    0.0000 C   0  0  0  0  0  0  0  0  0  0  0  0
    2.6952   -1.9716    0.0000 C   0  0  0  0  0  0  0  0  0  0  0  0
   -4.0633   -2.1705    0.0000 Cl  0  0  0  0  0  0  0  0  0  0  0  0
    3.8473   -0.8195    0.0000 C   0  0  0  0  0  0  0  0  0  0  0  0
   -3.2644   -0.9738    0.0000 C   0  0  0  0  0  0  0  0  0  0  0  0
   -2.6197   -2.2494    0.0000 C   0  0  0  0  0  0  0  0  0  0  0  0
   -2.5271   -0.6001    0.0000 C   0  0  0  0  0  0  0  0  0  0  0  0
   -1.8893   -1.8757    0.0000 C   0  0  0  0  0  0  0  0  0  0  0  0
    3.4941   -2.1808    0.0000 C   0  0  0  0  0  0  0  0  0  0  0  0
    4.0599   -1.6185    0.0000 C   0  0  0  0  0  0  0  0  0  0  0  0
  2  1  1  0  0  0  0
  3  2  1  0  0  0  0
  4  1  1  0  0  0  0
  5  4  2  0  0  0  0
  5  3  1  0  0  0  0
  6  1  2  0  0  0  0
  7 12  1  0  0  0  0
  8  6  1  0  0  0  0
  9  7  3  0  0  0  0
 10  8  1  0  0  0  0
 11  2  2  0  0  0  0
 12  3  1  0  0  0  0
 13 10  2  0  0  0  0
 14 10  1  0  0  0  0
 15 14  1  0  0  0  0
 16 21  2  0  0  0  0
 17  4  1  0  0  0  0
 18 16  1  0  0  0  0
 19  5  1  0  0  0  0
 20 22  2  0  0  0  0
 20 16  1  0  0  0  0
 21 23  1  0  0  0  0
 22 15  1  0  0  0  0
 23 15  2  0  0  0  0
 24 17  2  0  0  0  0
 25 24  1  0  0  0  0
 25 19  2  0  0  0  0
M  END
>  <CdId>
1930

>  <Mol Weight>
351.786

>  <Formula>
C19H14ClN3O2

>  <Click_ID>
CLK025H05 __  __  __

$$$$
CLK026D11 __  __  __
 OpenBabel03171423152D

 14 15  0  0  0  0  0  0  0  0999 V2000
   -1.3189    0.6744    0.0000 C   0  0  0  0  0  0  0  0  0  0  0  0
    0.0671   -0.6781    0.0000 C   0  0  3  0  0  0  0  0  0  0  0  0
   -1.0245   -0.7377    0.0000 C   0  0  3  0  0  0  0  0  0  0  0  0
   -0.9389    0.0261    0.0000 C   0  0  3  0  0  0  0  0  0  0  0  0
    0.8792   -0.6781    0.0000 C   0  0  0  0  0  0  0  0  0  0  0  0
   -1.7660   -0.7750    0.0000 C   0  0  0  0  0  0  0  0  0  0  0  0
   -0.2310   -0.3838    0.0000 C   0  0  3  0  0  0  0  0  0  0  0  0
    1.2966   -1.3897    0.0000 C   0  0  0  0  0  0  0  0  0  0  0  0
    0.4732    0.0373    0.0000 C   0  0  0  0  0  0  0  0  0  0  0  0
   -0.3539   -1.3897    0.0000 O   0  0  0  0  0  0  0  0  0  0  0  0
    2.1162   -1.3897    0.0000 I   0  0  0  0  0  0  0  0  0  0  0  0
   -0.9128    1.3934    0.0000 C   0  0  0  0  0  0  0  0  0  0  0  0
   -2.1199    0.8904    0.0000 C   0  0  0  0  0  0  0  0  0  0  0  0
   -0.2310    0.4433    0.0000 C   0  0  0  0  0  0  0  0  0  0  0  0
  2  3  1  0  0  0  0
  3  1  1  0  0  0  0
  4  1  1  0  0  0  0
  5  2  1  0  0  0  0
  6  4  1  0  0  0  0
  6  3  1  0  0  0  0
  7  4  1  0  0  0  0
  8  5  3  0  0  0  0
  9  7  1  0  0  0  0
  9  2  1  0  0  0  0
 10  2  1  0  0  0  0
 11  8  1  0  0  0  0
 12  1  1  0  0  0  0
 13  1  1  0  0  0  0
 14  7  1  0  0  0  0
M  END
>  <CdId>
1976

>  <Mol Weight>
304.1673

>  <Formula>
C12H17IO

>  <Click_ID>
CLK026D11 __  __  __

$$$$
CLK026H11 __  __  __
 OpenBabel03171423152D

 14 15  0  0  0  0  0  0  0  0999 V2000
   -0.8084    0.0575    0.0000 C   0  0  3  0  0  0  0  0  0  0  0  0
   -0.0926   -0.3547    0.0000 C   0  0  3  0  0  0  0  0  0  0  0  0
   -0.9266    0.7541    0.0000 C   0  0  0  0  0  0  0  0  0  0  0  0
    0.6294   -0.7636    0.0000 C   0  0  0  0  0  0  0  0  0  0  0  0
   -1.0001   -0.2684    0.0000 C   0  0  3  0  0  0  0  0  0  0  0  0
   -0.2748   -0.6614    0.0000 C   0  0  0  0  0  0  0  0  0  0  0  0
    1.2078   -1.1087    0.0000 C   0  0  0  0  0  0  0  0  0  0  0  0
   -1.6487   -0.2684    0.0000 C   0  0  0  0  0  0  0  0  0  0  0  0
   -1.8692   -0.6199    0.0000 C   0  0  0  0  0  0  0  0  0  0  0  0
    0.6646   -0.0895    0.0000 O   0  0  0  0  0  0  0  0  0  0  0  0
    1.8660   -1.4954    0.0000 I   0  0  0  0  0  0  0  0  0  0  0  0
   -0.0703    0.3291    0.0000 C   0  0  0  0  0  0  0  0  0  0  0  0
   -1.3420    1.4059    0.0000 C   0  0  0  0  0  0  0  0  0  0  0  0
   -0.4569    1.4986    0.0000 C   0  0  0  0  0  0  0  0  0  0  0  0
  2  1  1  0  0  0  0
  3  1  1  0  0  0  0
  4  2  1  0  0  0  0
  5  3  1  0  0  0  0
  5  9  1  0  0  0  0
  6  2  1  0  0  0  0
  6  5  1  0  0  0  0
  7  4  3  0  0  0  0
  8  1  1  0  0  0  0
  9  8  1  0  0  0  0
 10  2  1  0  0  0  0
 11  7  1  0  0  0  0
 12  1  1  0  0  0  0
 13  3  1  0  0  0  0
 14  3  1  0  0  0  0
M  END
>  <CdId>
2016

>  <Mol Weight>
304.1673

>  <Formula>
C12H17IO

>  <Click_ID>
CLK026H11 __  __  __

$$$$
CLK027C10 __  __  __
 OpenBabel03171423152D

 20 21  0  0  0  0  0  0  0  0999 V2000
    1.8150   -0.7184    0.0000 C   0  0  0  0  0  0  0  0  0  0  0  0
    2.5987   -0.4675    0.0000 N   0  0  0  0  0  0  0  0  0  0  0  0
    1.1000   -0.3059    0.0000 N   0  0  0  0  0  0  0  0  0  0  0  0
    1.8150   -1.5503    0.0000 S   0  0  0  0  0  0  0  0  0  0  0  0
    3.0766   -1.1378    0.0000 C   0  0  0  0  0  0  0  0  0  0  0  0
    0.3884   -0.7184    0.0000 C   0  0  0  0  0  0  0  0  0  0  0  0
    2.5987   -1.8047    0.0000 C   0  0  0  0  0  0  0  0  0  0  0  0
   -3.1866    2.1759    0.0000 C   0  0  0  0  0  0  0  0  0  0  0  0
   -3.9050    2.5919    0.0000 C   0  0  0  0  0  0  0  0  0  0  0  0
   -0.3300   -0.3059    0.0000 C   0  0  0  0  0  0  0  0  0  0  0  0
    0.3884   -1.5503    0.0000 O   0  0  0  0  0  0  0  0  0  0  0  0
   -1.0416   -0.7184    0.0000 C   0  0  0  0  0  0  0  0  0  0  0  0
   -0.3300    0.5191    0.0000 C   0  0  0  0  0  0  0  0  0  0  0  0
   -1.7566    0.5191    0.0000 C   0  0  0  0  0  0  0  0  0  0  0  0
   -1.7566   -0.3059    0.0000 C   0  0  0  0  0  0  0  0  0  0  0  0
   -1.0416    0.9281    0.0000 C   0  0  0  0  0  0  0  0  0  0  0  0
    3.9016   -1.1412    0.0000 C   0  0  0  0  0  0  0  0  0  0  0  0
    2.8531   -2.5884    0.0000 C   0  0  0  0  0  0  0  0  0  0  0  0
   -2.4750    1.7669    0.0000 C   0  0  0  0  0  0  0  0  0  0  0  0
   -2.4750    0.9419    0.0000 O   0  0  0  0  0  0  0  0  0  0  0  0
  2  1  2  0  0  0  0
  3  1  1  0  0  0  0
  4  1  1  0  0  0  0
  5  2  1  0  0  0  0
  6  3  1  0  0  0  0
  7  4  1  0  0  0  0
  7  5  2  0  0  0  0
  8 19  1  0  0  0  0
  9  8  3  0  0  0  0
 10  6  1  0  0  0  0
 11  6  2  0  0  0  0
 12 10  1  0  0  0  0
 13 10  2  0  0  0  0
 14 16  2  0  0  0  0
 15 12  2  0  0  0  0
 15 14  1  0  0  0  0
 16 13  1  0  0  0  0
 17  5  1  0  0  0  0
 18  7  1  0  0  0  0
 19 20  1  0  0  0  0
 20 14  1  0  0  0  0
M  END
>  <CdId>
2043

>  <Mol Weight>
286.349

>  <Formula>
C15H14N2O2S

>  <Click_ID>
CLK027C10 __  __  __

$$$$
CLK028C06 __  __  __
 OpenBabel03171423152D

 32 34  0  0  0  0  0  0  0  0999 V2000
   -2.1370   -0.1887    0.0000 C   0  0  0  0  0  0  0  0  0  0  0  0
   -2.8574   -0.6003    0.0000 C   0  0  0  0  0  0  0  0  0  0  0  0
    4.2707    1.0394    0.0000 C   0  0  0  0  0  0  0  0  0  0  0  0
    4.9945    1.4407    0.0000 C   0  0  0  0  0  0  0  0  0  0  0  0
   -0.7101   -0.1887    0.0000 N   0  0  0  0  0  0  0  0  0  0  0  0
    1.4304    1.0428    0.0000 C   0  0  0  0  0  0  0  0  0  0  0  0
   -1.4236   -0.6003    0.0000 N   0  0  0  0  0  0  0  0  0  0  0  0
   -2.1370    0.6380    0.0000 O   0  0  0  0  0  0  0  0  0  0  0  0
    2.1302    0.6380    0.0000 C   0  0  0  0  0  0  0  0  0  0  0  0
    0.7169    0.6380    0.0000 C   0  0  0  0  0  0  0  0  0  0  0  0
   -2.8574   -1.4270    0.0000 C   0  0  0  0  0  0  0  0  0  0  0  0
   -3.5709   -0.1887    0.0000 C   0  0  0  0  0  0  0  0  0  0  0  0
    2.1302   -0.1852    0.0000 C   0  0  0  0  0  0  0  0  0  0  0  0
    0.0035   -0.6003    0.0000 C   0  0  0  0  0  0  0  0  0  0  0  0
    0.7169   -0.1887    0.0000 C   0  0  0  0  0  0  0  0  0  0  0  0
   -3.0701    0.1990    0.0000 O   0  0  0  0  0  0  0  0  0  0  0  0
    1.4167   -0.5900    0.0000 C   0  0  0  0  0  0  0  0  0  0  0  0
    1.4304    1.8661    0.0000 O   0  0  0  0  0  0  0  0  0  0  0  0
    2.8540    1.0394    0.0000 O   0  0  0  0  0  0  0  0  0  0  0  0
    3.5572    0.6312    0.0000 C   0  0  0  0  0  0  0  0  0  0  0  0
   -3.5641    0.6380    0.0000 C   0  0  0  0  0  0  0  0  0  0  0  0
   -4.2845   -0.6003    0.0000 C   0  0  0  0  0  0  0  0  0  0  0  0
   -3.5778   -1.8352    0.0000 C   0  0  0  0  0  0  0  0  0  0  0  0
   -2.1405   -1.8352    0.0000 C   0  0  0  0  0  0  0  0  0  0  0  0
    0.7238    2.2640    0.0000 C   0  0  0  0  0  0  0  0  0  0  0  0
    0.7169    3.0838    0.0000 C   0  0  0  0  0  0  0  0  0  0  0  0
   -3.5778   -2.6619    0.0000 C   0  0  0  0  0  0  0  0  0  0  0  0
   -4.9945   -0.1852    0.0000 C   0  0  0  0  0  0  0  0  0  0  0  0
   -4.2775    1.0497    0.0000 C   0  0  0  0  0  0  0  0  0  0  0  0
   -2.1508   -2.6653    0.0000 C   0  0  0  0  0  0  0  0  0  0  0  0
   -2.8643   -3.0804    0.0000 C   0  0  0  0  0  0  0  0  0  0  0  0
   -4.9945    0.6415    0.0000 C   0  0  0  0  0  0  0  0  0  0  0  0
  2  1  1  0  0  0  0
  3 20  1  0  0  0  0
  4  3  3  0  0  0  0
  5  7  1  0  0  0  0
  6 10  1  0  0  0  0
  7  1  1  0  0  0  0
  8  1  2  0  0  0  0
  9 13  1  0  0  0  0
  9  6  2  0  0  0  0
 10 15  2  0  0  0  0
 11  2  1  0  0  0  0
 12  2  1  0  0  0  0
 13 17  2  0  0  0  0
 14  5  2  0  0  0  0
 15 14  1  0  0  0  0
 16  2  1  0  0  0  0
 17 15  1  0  0  0  0
 18  6  1  0  0  0  0
 19  9  1  0  0  0  0
 20 19  1  0  0  0  0
 21 12  2  0  0  0  0
 22 12  1  0  0  0  0
 23 11  2  0  0  0  0
 24 11  1  0  0  0  0
 25 18  1  0  0  0  0
 26 25  1  0  0  0  0
 27 23  1  0  0  0  0
 28 22  2  0  0  0  0
 29 21  1  0  0  0  0
 30 24  2  0  0  0  0
 31 30  1  0  0  0  0
 31 27  2  0  0  0  0
 32 28  1  0  0  0  0
 32 29  2  0  0  0  0
M  END
>  <CdId>
2110

>  <Mol Weight>
428.4798

>  <Formula>
C26H24N2O4

>  <Click_ID>
CLK028C06 __  __  __

$$$$
CLK028C09 __  __  __
 OpenBabel03171423152D

 28 30  0  0  0  0  0  0  0  0999 V2000
    2.0316    0.8937    0.0000 C   0  0  0  0  0  0  0  0  0  0  0  0
    2.1141    0.0757    0.0000 C   0  0  0  0  0  0  0  0  0  0  0  0
    2.9219   -0.0928    0.0000 N   0  0  0  0  0  0  0  0  0  0  0  0
    2.7844    1.2307    0.0000 C   0  0  0  0  0  0  0  0  0  0  0  0
    3.3344    0.6188    0.0000 C   0  0  0  0  0  0  0  0  0  0  0  0
    1.3165    1.3062    0.0000 N   0  0  0  0  0  0  0  0  0  0  0  0
   -2.2550    0.8937    0.0000 C   0  0  0  0  0  0  0  0  0  0  0  0
   -0.1100    1.3062    0.0000 C   0  0  0  0  0  0  0  0  0  0  0  0
   -2.9735    1.3132    0.0000 C   0  0  0  0  0  0  0  0  0  0  0  0
   -2.2550    0.0687    0.0000 C   0  0  0  0  0  0  0  0  0  0  0  0
    0.6016    0.8937    0.0000 N   0  0  0  0  0  0  0  0  0  0  0  0
   -1.5400    1.3062    0.0000 O   0  0  0  0  0  0  0  0  0  0  0  0
    2.7706   -1.5194    0.0000 C   0  0  0  0  0  0  0  0  0  0  0  0
    2.2791   -2.1828    0.0000 C   0  0  0  0  0  0  0  0  0  0  0  0
    1.4953   -0.4778    0.0000 O   0  0  0  0  0  0  0  0  0  0  0  0
   -2.9735   -0.3403    0.0000 C   0  0  0  0  0  0  0  0  0  0  0  0
   -3.6850    0.8937    0.0000 C   0  0  0  0  0  0  0  0  0  0  0  0
   -3.6850    0.0687    0.0000 C   0  0  0  0  0  0  0  0  0  0  0  0
    3.2553   -0.8491    0.0000 C   0  0  0  0  0  0  0  0  0  0  0  0
   -0.1100    2.1312    0.0000 O   0  0  0  0  0  0  0  0  0  0  0  0
   -0.8250    0.8937    0.0000 C   0  0  0  0  0  0  0  0  0  0  0  0
   -4.4000   -0.3403    0.0000 Br  0  0  0  0  0  0  0  0  0  0  0  0
    3.0353    2.0109    0.0000 C   0  0  0  0  0  0  0  0  0  0  0  0
    4.1353    0.7837    0.0000 C   0  0  0  0  0  0  0  0  0  0  0  0
   -2.9735    2.1347    0.0000 C   0  0  0  0  0  0  0  0  0  0  0  0
   -1.5400   -0.3403    0.0000 C   0  0  0  0  0  0  0  0  0  0  0  0
    3.8466    2.1862    0.0000 C   0  0  0  0  0  0  0  0  0  0  0  0
    4.3966    1.5675    0.0000 C   0  0  0  0  0  0  0  0  0  0  0  0
  2  1  1  0  0  0  0
  3  2  1  0  0  0  0
  4  1  1  0  0  0  0
  5  4  2  0  0  0  0
  5  3  1  0  0  0  0
  6  1  2  0  0  0  0
  7 12  1  0  0  0  0
  8 11  1  0  0  0  0
  9  7  1  0  0  0  0
 10  7  2  0  0  0  0
 11  6  1  0  0  0  0
 12 21  1  0  0  0  0
 13 19  1  0  0  0  0
 14 13  3  0  0  0  0
 15  2  2  0  0  0  0
 16 10  1  0  0  0  0
 17  9  2  0  0  0  0
 18 16  2  0  0  0  0
 18 17  1  0  0  0  0
 19  3  1  0  0  0  0
 20  8  2  0  0  0  0
 21  8  1  0  0  0  0
 22 18  1  0  0  0  0
 23  4  1  0  0  0  0
 24  5  1  0  0  0  0
 25  9  1  0  0  0  0
 26 10  1  0  0  0  0
 27 23  2  0  0  0  0
 28 27  1  0  0  0  0
 28 24  2  0  0  0  0
M  END
>  <CdId>
2113

>  <Mol Weight>
440.29

>  <Formula>
C21H18BrN3O3

>  <Click_ID>
CLK028C09 __  __  __

$$$$
CLK028D09 __  __  __
 OpenBabel03171423152D

 27 29  0  0  0  0  0  0  0  0999 V2000
    1.3131    0.3025    0.0000 C   0  0  0  0  0  0  0  0  0  0  0  0
    1.3989   -0.5190    0.0000 C   0  0  0  0  0  0  0  0  0  0  0  0
    2.2067   -0.6943    0.0000 N   0  0  0  0  0  0  0  0  0  0  0  0
    2.0692    0.6325    0.0000 C   0  0  0  0  0  0  0  0  0  0  0  0
    2.6192    0.0206    0.0000 C   0  0  0  0  0  0  0  0  0  0  0  0
    0.6015    0.7150    0.0000 N   0  0  0  0  0  0  0  0  0  0  0  0
   -0.1134    1.9524    0.0000 C   0  0  0  0  0  0  0  0  0  0  0  0
    0.6015    1.5399    0.0000 N   0  0  0  0  0  0  0  0  0  0  0  0
    2.0555   -2.1139    0.0000 C   0  0  0  0  0  0  0  0  0  0  0  0
    1.5639   -2.7738    0.0000 C   0  0  0  0  0  0  0  0  0  0  0  0
   -2.2548    0.7080    0.0000 C   0  0  0  0  0  0  0  0  0  0  0  0
    0.7802   -1.0690    0.0000 O   0  0  0  0  0  0  0  0  0  0  0  0
   -2.2548    1.5399    0.0000 C   0  0  0  0  0  0  0  0  0  0  0  0
   -1.5399    1.9524    0.0000 O   0  0  0  0  0  0  0  0  0  0  0  0
    2.5401   -1.4402    0.0000 C   0  0  0  0  0  0  0  0  0  0  0  0
   -0.1134    2.7773    0.0000 O   0  0  0  0  0  0  0  0  0  0  0  0
   -2.9732    0.2956    0.0000 C   0  0  0  0  0  0  0  0  0  0  0  0
   -0.8249    1.5399    0.0000 C   0  0  0  0  0  0  0  0  0  0  0  0
    2.3201    1.4162    0.0000 C   0  0  0  0  0  0  0  0  0  0  0  0
    3.4200    0.1925    0.0000 C   0  0  0  0  0  0  0  0  0  0  0  0
   -3.6847    1.5399    0.0000 C   0  0  0  0  0  0  0  0  0  0  0  0
   -1.5399    0.2956    0.0000 C   0  0  0  0  0  0  0  0  0  0  0  0
   -2.9732    1.9524    0.0000 C   0  0  0  0  0  0  0  0  0  0  0  0
   -3.6847    0.7080    0.0000 C   0  0  0  0  0  0  0  0  0  0  0  0
   -2.9732   -0.5190    0.0000 C   0  0  0  0  0  0  0  0  0  0  0  0
    3.1313    1.5880    0.0000 C   0  0  0  0  0  0  0  0  0  0  0  0
    3.6813    0.9761    0.0000 C   0  0  0  0  0  0  0  0  0  0  0  0
  2  1  1  0  0  0  0
  3  2  1  0  0  0  0
  4  1  1  0  0  0  0
  5  4  2  0  0  0  0
  5  3  1  0  0  0  0
  6  1  2  0  0  0  0
  7  8  1  0  0  0  0
  8  6  1  0  0  0  0
  9 15  1  0  0  0  0
 10  9  3  0  0  0  0
 11 13  2  0  0  0  0
 12  2  2  0  0  0  0
 13 14  1  0  0  0  0
 14 18  1  0  0  0  0
 15  3  1  0  0  0  0
 16  7  2  0  0  0  0
 17 11  1  0  0  0  0
 17 24  2  0  0  0  0
 18  7  1  0  0  0  0
 19  4  1  0  0  0  0
 20  5  1  0  0  0  0
 21 23  2  0  0  0  0
 22 11  1  0  0  0  0
 23 13  1  0  0  0  0
 24 21  1  0  0  0  0
 25 17  1  0  0  0  0
 26 19  2  0  0  0  0
 27 26  1  0  0  0  0
 27 20  2  0  0  0  0
M  END
>  <CdId>
2123

>  <Mol Weight>
361.3939

>  <Formula>
C21H19N3O3

>  <Click_ID>
CLK028D09 __  __  __

$$$$
CLK028F06 __  __  __
 OpenBabel03171423152D

 27 30  0  0  0  0  0  0  0  0999 V2000
    1.4064    0.8391    0.0000 C   0  0  0  0  0  0  0  0  0  0  0  0
    2.1354   -0.3852    0.0000 C   0  0  0  0  0  0  0  0  0  0  0  0
    1.4167    0.0138    0.0000 C   0  0  3  0  0  0  0  0  0  0  0  0
    2.8472    0.0378    0.0000 C   0  0  0  0  0  0  0  0  0  0  0  0
    2.1148    1.2620    0.0000 C   0  0  0  0  0  0  0  0  0  0  0  0
    2.8266    0.8597    0.0000 O   0  0  0  0  0  0  0  0  0  0  0  0
    0.7049   -0.3955    0.0000 C   0  0  0  0  0  0  0  0  0  0  0  0
    0.6912    1.2482    0.0000 C   0  0  0  0  0  0  0  0  0  0  0  0
    2.1389   -1.2035    0.0000 C   0  0  0  0  0  0  0  0  0  0  0  0
    0.7221   -1.2311    0.0000 C   0  0  0  0  0  0  0  0  0  0  0  0
   -2.8575   -1.7056    0.0000 C   0  0  0  0  0  0  0  0  0  0  0  0
    0.0068   -1.6540    0.0000 C   0  0  0  0  0  0  0  0  0  0  0  0
   -3.5762   -2.1148    0.0000 C   0  0  0  0  0  0  0  0  0  0  0  0
   -0.0172    0.0000    0.0000 C   0  0  0  0  0  0  0  0  0  0  0  0
   -0.7118   -1.2517    0.0000 C   0  0  0  0  0  0  0  0  0  0  0  0
   -0.0275    0.8253    0.0000 O   0  0  0  0  0  0  0  0  0  0  0  0
    1.4271   -1.6368    0.0000 O   0  0  0  0  0  0  0  0  0  0  0  0
   -0.7290   -0.4230    0.0000 C   0  0  0  0  0  0  0  0  0  0  0  0
    3.5590   -0.3611    0.0000 C   0  0  0  0  0  0  0  0  0  0  0  0
    2.1044    2.0941    0.0000 C   0  0  0  0  0  0  0  0  0  0  0  0
    0.0241   -2.4758    0.0000 Cl  0  0  0  0  0  0  0  0  0  0  0  0
   -1.4271   -1.6780    0.0000 O   0  0  0  0  0  0  0  0  0  0  0  0
   -2.1492   -1.2826    0.0000 C   0  0  0  0  0  0  0  0  0  0  0  0
    0.6774    2.0700    0.0000 C   0  0  0  0  0  0  0  0  0  0  0  0
    2.8610   -1.6058    0.0000 C   0  0  0  0  0  0  0  0  0  0  0  0
    3.5728   -1.1932    0.0000 C   0  0  0  0  0  0  0  0  0  0  0  0
    1.3789    2.4793    0.0000 C   0  0  0  0  0  0  0  0  0  0  0  0
  2  3  1  0  0  0  0
  2  4  2  0  0  0  0
  3  1  1  0  0  0  0
  4  6  1  0  0  0  0
  5  1  2  0  0  0  0
  6  5  1  0  0  0  0
  7  3  1  0  0  0  0
  8  1  1  0  0  0  0
  9  2  1  0  0  0  0
 10  7  2  0  0  0  0
 11 23  1  0  0  0  0
 12 10  1  0  0  0  0
 13 11  3  0  0  0  0
 14  7  1  0  0  0  0
 15 18  1  0  0  0  0
 15 12  2  0  0  0  0
 16  8  2  0  0  0  0
 17  9  2  0  0  0  0
 18 14  2  0  0  0  0
 19  4  1  0  0  0  0
 20  5  1  0  0  0  0
 20 27  1  0  0  0  0
 21 12  1  0  0  0  0
 22 15  1  0  0  0  0
 23 22  1  0  0  0  0
 24  8  1  0  0  0  0
 25  9  1  0  0  0  0
 25 26  1  0  0  0  0
 26 19  1  0  0  0  0
 27 24  1  0  0  0  0
M  END
>  <CdId>
2140

>  <Mol Weight>
382.837

>  <Formula>
C22H19ClO4

>  <Click_ID>
CLK028F06 __  __  __

$$$$
CLK029A05 __  __  __
 OpenBabel03171423152D

 27 30  0  0  0  0  0  0  0  0999 V2000
    1.4064    0.8391    0.0000 C   0  0  0  0  0  0  0  0  0  0  0  0
    2.1354   -0.3852    0.0000 C   0  0  0  0  0  0  0  0  0  0  0  0
    1.4167    0.0138    0.0000 C   0  0  3  0  0  0  0  0  0  0  0  0
    2.8472    0.0378    0.0000 C   0  0  0  0  0  0  0  0  0  0  0  0
    2.1148    1.2620    0.0000 C   0  0  0  0  0  0  0  0  0  0  0  0
    2.8266    0.8597    0.0000 O   0  0  0  0  0  0  0  0  0  0  0  0
    0.7049   -0.3955    0.0000 C   0  0  0  0  0  0  0  0  0  0  0  0
    0.6912    1.2482    0.0000 C   0  0  0  0  0  0  0  0  0  0  0  0
    2.1389   -1.2035    0.0000 C   0  0  0  0  0  0  0  0  0  0  0  0
    0.7221   -1.2311    0.0000 C   0  0  0  0  0  0  0  0  0  0  0  0
   -2.8575   -1.7056    0.0000 C   0  0  0  0  0  0  0  0  0  0  0  0
    0.0068   -1.6540    0.0000 C   0  0  0  0  0  0  0  0  0  0  0  0
   -3.5762   -2.1148    0.0000 C   0  0  0  0  0  0  0  0  0  0  0  0
   -0.0172    0.0000    0.0000 C   0  0  0  0  0  0  0  0  0  0  0  0
   -0.7118   -1.2517    0.0000 C   0  0  0  0  0  0  0  0  0  0  0  0
   -0.0275    0.8253    0.0000 O   0  0  0  0  0  0  0  0  0  0  0  0
    1.4271   -1.6368    0.0000 O   0  0  0  0  0  0  0  0  0  0  0  0
   -0.7290   -0.4230    0.0000 C   0  0  0  0  0  0  0  0  0  0  0  0
    3.5590   -0.3611    0.0000 C   0  0  0  0  0  0  0  0  0  0  0  0
    2.1044    2.0941    0.0000 C   0  0  0  0  0  0  0  0  0  0  0  0
    0.0241   -2.4758    0.0000 Cl  0  0  0  0  0  0  0  0  0  0  0  0
   -1.4271   -1.6780    0.0000 O   0  0  0  0  0  0  0  0  0  0  0  0
   -2.1492   -1.2826    0.0000 C   0  0  0  0  0  0  0  0  0  0  0  0
    0.6774    2.0700    0.0000 C   0  0  0  0  0  0  0  0  0  0  0  0
    2.8610   -1.6058    0.0000 C   0  0  0  0  0  0  0  0  0  0  0  0
    3.5728   -1.1932    0.0000 C   0  0  0  0  0  0  0  0  0  0  0  0
    1.3789    2.4793    0.0000 C   0  0  0  0  0  0  0  0  0  0  0  0
  2  3  1  0  0  0  0
  2  4  2  0  0  0  0
  3  1  1  0  0  0  0
  4  6  1  0  0  0  0
  5  1  2  0  0  0  0
  6  5  1  0  0  0  0
  7  3  1  0  0  0  0
  8  1  1  0  0  0  0
  9  2  1  0  0  0  0
 10  7  2  0  0  0  0
 11 23  1  0  0  0  0
 12 10  1  0  0  0  0
 13 11  3  0  0  0  0
 14  7  1  0  0  0  0
 15 18  1  0  0  0  0
 15 12  2  0  0  0  0
 16  8  2  0  0  0  0
 17  9  2  0  0  0  0
 18 14  2  0  0  0  0
 19  4  1  0  0  0  0
 20  5  1  0  0  0  0
 20 27  1  0  0  0  0
 21 12  1  0  0  0  0
 22 15  1  0  0  0  0
 23 22  1  0  0  0  0
 24  8  1  0  0  0  0
 25  9  1  0  0  0  0
 25 26  1  0  0  0  0
 26 19  1  0  0  0  0
 27 24  1  0  0  0  0
M  END
>  <CdId>
2169

>  <Mol Weight>
382.837

>  <Formula>
C22H19ClO4

>  <Click_ID>
CLK029A05 __  __  __

$$$$
CLK029B05 __  __  __
 OpenBabel03171423152D

 26 29  0  0  0  0  0  0  0  0999 V2000
   -4.7353    5.0318    0.0000 C   0  0  0  0  0  0  0  0  0  0  0  0
   -5.2048    5.6742    0.0000 N   0  0  0  0  0  0  0  0  0  0  0  0
   -5.2048    4.3647    0.0000 N   0  0  0  0  0  0  0  0  0  0  0  0
   -2.6436    5.4024    0.0000 N   0  0  0  0  0  0  0  0  0  0  0  0
   -3.9200    4.9824    0.0000 C   0  0  3  0  0  0  0  0  0  0  0  0
   -2.6436    4.5707    0.0000 C   0  0  0  0  0  0  0  0  0  0  0  0
   -3.4259    5.6495    0.0000 C   0  0  0  0  0  0  0  0  0  0  0  0
   -5.9954    4.6118    0.0000 C   0  0  0  0  0  0  0  0  0  0  0  0
   -5.9954    5.4271    0.0000 C   0  0  0  0  0  0  0  0  0  0  0  0
   -1.9682    5.8471    0.0000 C   0  0  0  0  0  0  0  0  0  0  0  0
   -3.4259    4.3153    0.0000 C   0  0  0  0  0  0  0  0  0  0  0  0
   -5.4848    2.9401    0.0000 C   0  0  0  0  0  0  0  0  0  0  0  0
   -2.0176    6.6624    0.0000 C   0  0  0  0  0  0  0  0  0  0  0  0
   -6.0284    2.3224    0.0000 C   0  0  0  0  0  0  0  0  0  0  0  0
   -1.3341    7.1319    0.0000 C   0  0  0  0  0  0  0  0  0  0  0  0
   -1.9682    4.0930    0.0000 O   0  0  0  0  0  0  0  0  0  0  0  0
   -1.2270    5.4848    0.0000 C   0  0  0  0  0  0  0  0  0  0  0  0
   -0.5847    6.7613    0.0000 C   0  0  0  0  0  0  0  0  0  0  0  0
   -4.9330    3.5741    0.0000 C   0  0  0  0  0  0  0  0  0  0  0  0
   -0.5352    5.9459    0.0000 C   0  0  0  0  0  0  0  0  0  0  0  0
   -6.6954    4.1918    0.0000 C   0  0  0  0  0  0  0  0  0  0  0  0
   -6.6954    5.8471    0.0000 C   0  0  0  0  0  0  0  0  0  0  0  0
   -1.4000    7.9391    0.0000 C   0  0  0  0  0  0  0  0  0  0  0  0
    0.1235    7.2307    0.0000 C   0  0  0  0  0  0  0  0  0  0  0  0
   -7.4119    4.6118    0.0000 C   0  0  0  0  0  0  0  0  0  0  0  0
   -7.4119    5.4271    0.0000 C   0  0  0  0  0  0  0  0  0  0  0  0
  2  1  2  0  0  0  0
  3  1  1  0  0  0  0
  4  7  1  0  0  0  0
  5  1  1  0  0  0  0
  6 11  1  0  0  0  0
  6  4  1  0  0  0  0
  7  5  1  0  0  0  0
  8  3  1  0  0  0  0
  8  9  2  0  0  0  0
  9  2  1  0  0  0  0
 10  4  1  0  0  0  0
 11  5  1  0  0  0  0
 12 19  1  0  0  0  0
 13 10  2  0  0  0  0
 14 12  3  0  0  0  0
 15 13  1  0  0  0  0
 16  6  2  0  0  0  0
 17 10  1  0  0  0  0
 18 20  1  0  0  0  0
 18 15  2  0  0  0  0
 19  3  1  0  0  0  0
 20 17  2  0  0  0  0
 21  8  1  0  0  0  0
 22  9  1  0  0  0  0
 23 15  1  0  0  0  0
 24 18  1  0  0  0  0
 25 21  2  0  0  0  0
 26 22  2  0  0  0  0
 26 25  1  0  0  0  0
M  END
>  <CdId>
2179

>  <Mol Weight>
343.4216

>  <Formula>
C22H21N3O

>  <Click_ID>
CLK029B05 __  __  __

$$$$
CLK029C05 __  __  __
 OpenBabel03171423152D

 28 31  0  0  0  0  0  0  0  0999 V2000
   -4.7482    5.0455    0.0000 C   0  0  0  0  0  0  0  0  0  0  0  0
   -5.2189    5.6896    0.0000 N   0  0  0  0  0  0  0  0  0  0  0  0
   -5.2189    4.3766    0.0000 N   0  0  0  0  0  0  0  0  0  0  0  0
   -3.9307    4.9959    0.0000 C   0  0  3  0  0  0  0  0  0  0  0  0
   -2.6508    5.4171    0.0000 N   0  0  0  0  0  0  0  0  0  0  0  0
   -2.6508    4.5831    0.0000 C   0  0  0  0  0  0  0  0  0  0  0  0
   -3.4352    5.6648    0.0000 C   0  0  0  0  0  0  0  0  0  0  0  0
   -6.0116    4.6243    0.0000 C   0  0  0  0  0  0  0  0  0  0  0  0
   -6.0116    5.4419    0.0000 C   0  0  0  0  0  0  0  0  0  0  0  0
   -3.4352    4.3270    0.0000 C   0  0  0  0  0  0  0  0  0  0  0  0
   -2.0067    5.9209    0.0000 C   0  0  0  0  0  0  0  0  0  0  0  0
   -5.4997    2.9481    0.0000 C   0  0  0  0  0  0  0  0  0  0  0  0
   -6.0447    2.3287    0.0000 C   0  0  0  0  0  0  0  0  0  0  0  0
   -1.9736    4.1041    0.0000 O   0  0  0  0  0  0  0  0  0  0  0  0
   -4.9464    3.5838    0.0000 C   0  0  0  0  0  0  0  0  0  0  0  0
   -1.2551    5.6236    0.0000 C   0  0  0  0  0  0  0  0  0  0  0  0
   -2.1305    6.7301    0.0000 C   0  0  0  0  0  0  0  0  0  0  0  0
   -1.4781    7.2503    0.0000 C   0  0  0  0  0  0  0  0  0  0  0  0
   -0.6110    6.1355    0.0000 C   0  0  0  0  0  0  0  0  0  0  0  0
   -0.7349    6.9530    0.0000 C   0  0  0  0  0  0  0  0  0  0  0  0
   -6.7136    4.2032    0.0000 C   0  0  0  0  0  0  0  0  0  0  0  0
   -6.7136    5.8630    0.0000 C   0  0  0  0  0  0  0  0  0  0  0  0
   -0.0908    7.4733    0.0000 C   0  0  0  0  0  0  0  0  0  0  0  0
    0.6772    7.1760    0.0000 C   0  0  0  0  0  0  0  0  0  0  0  0
    1.3213    7.6962    0.0000 C   0  0  0  0  0  0  0  0  0  0  0  0
   -7.4321    4.6243    0.0000 C   0  0  0  0  0  0  0  0  0  0  0  0
   -7.4321    5.4419    0.0000 C   0  0  0  0  0  0  0  0  0  0  0  0
    2.0893    7.3990    0.0000 C   0  0  0  0  0  0  0  0  0  0  0  0
  2  1  2  0  0  0  0
  3  1  1  0  0  0  0
  4  1  1  0  0  0  0
  5  7  1  0  0  0  0
  6 10  1  0  0  0  0
  6  5  1  0  0  0  0
  7  4  1  0  0  0  0
  8  3  1  0  0  0  0
  8  9  2  0  0  0  0
  9  2  1  0  0  0  0
 10  4  1  0  0  0  0
 11  5  1  0  0  0  0
 12 15  1  0  0  0  0
 13 12  3  0  0  0  0
 14  6  2  0  0  0  0
 15  3  1  0  0  0  0
 16 11  1  0  0  0  0
 17 11  2  0  0  0  0
 18 17  1  0  0  0  0
 19 16  2  0  0  0  0
 19 20  1  0  0  0  0
 20 18  2  0  0  0  0
 21  8  1  0  0  0  0
 22  9  1  0  0  0  0
 23 20  1  0  0  0  0
 24 23  1  0  0  0  0
 25 24  1  0  0  0  0
 26 21  2  0  0  0  0
 27 22  2  0  0  0  0
 27 26  1  0  0  0  0
 28 25  1  0  0  0  0
M  END
>  <CdId>
2189

>  <Mol Weight>
371.4748

>  <Formula>
C24H25N3O

>  <Click_ID>
CLK029C05 __  __  __

$$$$
CLK029D05 __  __  __
 OpenBabel03171423152D

 26 29  0  0  0  0  0  0  0  0999 V2000
   -4.7348    5.0312    0.0000 C   0  0  0  0  0  0  0  0  0  0  0  0
   -2.6433    5.4018    0.0000 N   0  0  0  0  0  0  0  0  0  0  0  0
   -5.2042    5.6735    0.0000 N   0  0  0  0  0  0  0  0  0  0  0  0
   -5.2042    4.3642    0.0000 N   0  0  0  0  0  0  0  0  0  0  0  0
   -3.9196    4.9818    0.0000 C   0  0  3  0  0  0  0  0  0  0  0  0
   -2.6433    4.5702    0.0000 C   0  0  0  0  0  0  0  0  0  0  0  0
   -1.9680    5.8465    0.0000 C   0  0  0  0  0  0  0  0  0  0  0  0
   -3.4255    5.6488    0.0000 C   0  0  0  0  0  0  0  0  0  0  0  0
   -5.9947    4.6113    0.0000 C   0  0  0  0  0  0  0  0  0  0  0  0
   -5.9947    5.4265    0.0000 C   0  0  0  0  0  0  0  0  0  0  0  0
   -3.4255    4.3148    0.0000 C   0  0  0  0  0  0  0  0  0  0  0  0
   -1.2269    5.4759    0.0000 C   0  0  0  0  0  0  0  0  0  0  0  0
   -5.4842    2.9397    0.0000 C   0  0  0  0  0  0  0  0  0  0  0  0
   -6.0277    2.3221    0.0000 C   0  0  0  0  0  0  0  0  0  0  0  0
   -2.0174    6.6700    0.0000 C   0  0  0  0  0  0  0  0  0  0  0  0
   -1.9680    4.0925    0.0000 O   0  0  0  0  0  0  0  0  0  0  0  0
   -4.9324    3.5737    0.0000 C   0  0  0  0  0  0  0  0  0  0  0  0
   -1.3257    7.1310    0.0000 C   0  0  0  0  0  0  0  0  0  0  0  0
   -0.5435    5.9289    0.0000 C   0  0  0  0  0  0  0  0  0  0  0  0
   -0.5846    6.7605    0.0000 C   0  0  0  0  0  0  0  0  0  0  0  0
    0.1812    5.5500    0.0000 Cl  0  0  0  0  0  0  0  0  0  0  0  0
   -6.6947    4.1913    0.0000 C   0  0  0  0  0  0  0  0  0  0  0  0
   -6.6947    5.8465    0.0000 C   0  0  0  0  0  0  0  0  0  0  0  0
   -2.7421    7.0569    0.0000 C   0  0  0  0  0  0  0  0  0  0  0  0
   -7.4111    4.6113    0.0000 C   0  0  0  0  0  0  0  0  0  0  0  0
   -7.4111    5.4265    0.0000 C   0  0  0  0  0  0  0  0  0  0  0  0
  2  8  1  0  0  0  0
  3  1  2  0  0  0  0
  4  1  1  0  0  0  0
  5  1  1  0  0  0  0
  6 11  1  0  0  0  0
  6  2  1  0  0  0  0
  7  2  1  0  0  0  0
  8  5  1  0  0  0  0
  9  4  1  0  0  0  0
  9 10  2  0  0  0  0
 10  3  1  0  0  0  0
 11  5  1  0  0  0  0
 12  7  1  0  0  0  0
 13 17  1  0  0  0  0
 14 13  3  0  0  0  0
 15  7  2  0  0  0  0
 16  6  2  0  0  0  0
 17  4  1  0  0  0  0
 18 15  1  0  0  0  0
 19 12  2  0  0  0  0
 19 20  1  0  0  0  0
 20 18  2  0  0  0  0
 21 19  1  0  0  0  0
 22  9  1  0  0  0  0
 23 10  1  0  0  0  0
 24 15  1  0  0  0  0
 25 22  2  0  0  0  0
 26 23  2  0  0  0  0
 26 25  1  0  0  0  0
M  END
>  <CdId>
2199

>  <Mol Weight>
363.84

>  <Formula>
C21H18ClN3O

>  <Click_ID>
CLK029D05 __  __  __

$$$$
CLK029D06 __  __  __
 OpenBabel03171423152D

 26 29  0  0  0  0  0  0  0  0999 V2000
   -4.7353    5.0318    0.0000 C   0  0  0  0  0  0  0  0  0  0  0  0
   -5.2048    5.6742    0.0000 N   0  0  0  0  0  0  0  0  0  0  0  0
   -5.2048    4.3647    0.0000 N   0  0  0  0  0  0  0  0  0  0  0  0
   -2.6436    5.4024    0.0000 N   0  0  0  0  0  0  0  0  0  0  0  0
   -3.9200    4.9824    0.0000 C   0  0  3  0  0  0  0  0  0  0  0  0
   -2.6436    4.5707    0.0000 C   0  0  0  0  0  0  0  0  0  0  0  0
   -1.9682    5.8471    0.0000 C   0  0  0  0  0  0  0  0  0  0  0  0
   -3.4259    5.6495    0.0000 C   0  0  0  0  0  0  0  0  0  0  0  0
   -5.9954    4.6118    0.0000 C   0  0  0  0  0  0  0  0  0  0  0  0
   -5.9954    5.4271    0.0000 C   0  0  0  0  0  0  0  0  0  0  0  0
   -3.4259    4.3153    0.0000 C   0  0  0  0  0  0  0  0  0  0  0  0
   -5.4848    2.9401    0.0000 C   0  0  0  0  0  0  0  0  0  0  0  0
   -6.0284    2.3224    0.0000 C   0  0  0  0  0  0  0  0  0  0  0  0
   -2.0176    6.6624    0.0000 C   0  0  0  0  0  0  0  0  0  0  0  0
   -1.2270    5.4848    0.0000 C   0  0  0  0  0  0  0  0  0  0  0  0
   -1.9682    4.0930    0.0000 O   0  0  0  0  0  0  0  0  0  0  0  0
   -4.9330    3.5741    0.0000 C   0  0  0  0  0  0  0  0  0  0  0  0
   -1.3341    7.1319    0.0000 C   0  0  0  0  0  0  0  0  0  0  0  0
   -0.5352    5.9459    0.0000 C   0  0  0  0  0  0  0  0  0  0  0  0
   -0.5847    6.7613    0.0000 C   0  0  0  0  0  0  0  0  0  0  0  0
   -6.6954    4.1918    0.0000 C   0  0  0  0  0  0  0  0  0  0  0  0
   -6.6954    5.8471    0.0000 C   0  0  0  0  0  0  0  0  0  0  0  0
    0.2060    5.5754    0.0000 C   0  0  0  0  0  0  0  0  0  0  0  0
   -1.4000    7.9391    0.0000 C   0  0  0  0  0  0  0  0  0  0  0  0
   -7.4119    4.6118    0.0000 C   0  0  0  0  0  0  0  0  0  0  0  0
   -7.4119    5.4271    0.0000 C   0  0  0  0  0  0  0  0  0  0  0  0
  2  1  2  0  0  0  0
  3  1  1  0  0  0  0
  4  8  1  0  0  0  0
  5  1  1  0  0  0  0
  6 11  1  0  0  0  0
  6  4  1  0  0  0  0
  7  4  1  0  0  0  0
  8  5  1  0  0  0  0
  9  3  1  0  0  0  0
  9 10  2  0  0  0  0
 10  2  1  0  0  0  0
 11  5  1  0  0  0  0
 12 17  1  0  0  0  0
 13 12  3  0  0  0  0
 14  7  2  0  0  0  0
 15  7  1  0  0  0  0
 16  6  2  0  0  0  0
 17  3  1  0  0  0  0
 18 14  1  0  0  0  0
 19 15  2  0  0  0  0
 20 19  1  0  0  0  0
 20 18  2  0  0  0  0
 21  9  1  0  0  0  0
 22 10  1  0  0  0  0
 23 19  1  0  0  0  0
 24 18  1  0  0  0  0
 25 21  2  0  0  0  0
 26 22  2  0  0  0  0
 26 25  1  0  0  0  0
M  END
>  <CdId>
2200

>  <Mol Weight>
343.4216

>  <Formula>
C22H21N3O

>  <Click_ID>
CLK029D06 __  __  __

$$$$
CLK029E05 __  __  __
 OpenBabel03171423152D

 28 31  0  0  0  0  0  0  0  0999 V2000
   -4.7614    5.0595    0.0000 C   0  0  0  0  0  0  0  0  0  0  0  0
   -5.2334    5.7054    0.0000 N   0  0  0  0  0  0  0  0  0  0  0  0
   -5.2334    4.3888    0.0000 N   0  0  0  0  0  0  0  0  0  0  0  0
   -3.9416    5.0098    0.0000 C   0  0  3  0  0  0  0  0  0  0  0  0
   -2.6582    5.4322    0.0000 N   0  0  0  0  0  0  0  0  0  0  0  0
   -2.6582    4.5959    0.0000 C   0  0  0  0  0  0  0  0  0  0  0  0
   -3.4447    5.6806    0.0000 C   0  0  0  0  0  0  0  0  0  0  0  0
   -1.5651    8.0821    0.0000 C   0  0  0  0  0  0  0  0  0  0  0  0
   -6.0284    4.6372    0.0000 C   0  0  0  0  0  0  0  0  0  0  0  0
   -6.0284    5.4570    0.0000 C   0  0  0  0  0  0  0  0  0  0  0  0
   -2.0122    5.9374    0.0000 C   0  0  0  0  0  0  0  0  0  0  0  0
   -3.4447    4.3391    0.0000 C   0  0  0  0  0  0  0  0  0  0  0  0
   -1.4822    7.2705    0.0000 C   0  0  0  0  0  0  0  0  0  0  0  0
   -5.5151    2.9563    0.0000 C   0  0  0  0  0  0  0  0  0  0  0  0
   -2.1364    6.7488    0.0000 C   0  0  0  0  0  0  0  0  0  0  0  0
   -6.0616    2.3352    0.0000 C   0  0  0  0  0  0  0  0  0  0  0  0
   -1.9790    4.1155    0.0000 O   0  0  0  0  0  0  0  0  0  0  0  0
   -4.9601    3.5938    0.0000 C   0  0  0  0  0  0  0  0  0  0  0  0
   -1.6561    8.9020    0.0000 F   0  0  0  0  0  0  0  0  0  0  0  0
   -0.7369    8.1566    0.0000 F   0  0  0  0  0  0  0  0  0  0  0  0
   -2.4014    8.0076    0.0000 F   0  0  0  0  0  0  0  0  0  0  0  0
   -1.2586    5.6393    0.0000 C   0  0  0  0  0  0  0  0  0  0  0  0
   -6.7323    4.2149    0.0000 C   0  0  0  0  0  0  0  0  0  0  0  0
   -6.7323    5.8793    0.0000 C   0  0  0  0  0  0  0  0  0  0  0  0
   -0.7369    6.9724    0.0000 C   0  0  0  0  0  0  0  0  0  0  0  0
   -0.6127    6.1526    0.0000 C   0  0  0  0  0  0  0  0  0  0  0  0
   -7.4527    4.6372    0.0000 C   0  0  0  0  0  0  0  0  0  0  0  0
   -7.4527    5.4570    0.0000 C   0  0  0  0  0  0  0  0  0  0  0  0
  2  1  2  0  0  0  0
  3  1  1  0  0  0  0
  4  1  1  0  0  0  0
  5  7  1  0  0  0  0
  6 12  1  0  0  0  0
  6  5  1  0  0  0  0
  7  4  1  0  0  0  0
  8 13  1  0  0  0  0
  9  3  1  0  0  0  0
  9 10  2  0  0  0  0
 10  2  1  0  0  0  0
 11  5  1  0  0  0  0
 12  4  1  0  0  0  0
 13 15  1  0  0  0  0
 14 18  1  0  0  0  0
 15 11  2  0  0  0  0
 16 14  3  0  0  0  0
 17  6  2  0  0  0  0
 18  3  1  0  0  0  0
 19  8  1  0  0  0  0
 20  8  1  0  0  0  0
 21  8  1  0  0  0  0
 22 11  1  0  0  0  0
 23  9  1  0  0  0  0
 24 10  1  0  0  0  0
 25 26  1  0  0  0  0
 25 13  2  0  0  0  0
 26 22  2  0  0  0  0
 27 23  2  0  0  0  0
 28 24  2  0  0  0  0
 28 27  1  0  0  0  0
M  END
>  <CdId>
2209

>  <Mol Weight>
383.3664

>  <Formula>
C21H16F3N3O

>  <Click_ID>
CLK029E05 __  __  __

$$$$
CLK029E10 __  __  __
 OpenBabel03171423152D

 24 26  0  0  0  0  0  0  0  0999 V2000
   -1.1649    2.3882    0.0000 C   0  0  0  0  0  0  0  0  0  0  0  0
   -0.3382    2.3799    0.0000 N   0  0  0  0  0  0  0  0  0  0  0  0
   -1.6492    1.7244    0.0000 N   0  0  0  0  0  0  0  0  0  0  0  0
   -1.6492    3.0563    0.0000 S   0  0  0  0  0  0  0  0  0  0  0  0
    0.0752    3.0939    0.0000 C   0  0  0  0  0  0  0  0  0  0  0  0
    0.9019    3.0939    0.0000 C   0  0  0  0  0  0  0  0  0  0  0  0
   -2.4383    1.9749    0.0000 C   0  0  0  0  0  0  0  0  0  0  0  0
   -2.4383    2.8016    0.0000 C   0  0  0  0  0  0  0  0  0  0  0  0
   -1.9498    0.3215    0.0000 C   0  0  0  0  0  0  0  0  0  0  0  0
   -2.5010   -0.2923    0.0000 C   0  0  0  0  0  0  0  0  0  0  0  0
   -0.3382    3.8079    0.0000 O   0  0  0  0  0  0  0  0  0  0  0  0
    1.3069    3.8037    0.0000 C   0  0  0  0  0  0  0  0  0  0  0  0
   -1.3987    0.9352    0.0000 C   0  0  0  0  0  0  0  0  0  0  0  0
    1.3152    2.3757    0.0000 C   0  0  0  0  0  0  0  0  0  0  0  0
    0.8935    4.5135    0.0000 O   0  0  0  0  0  0  0  0  0  0  0  0
   -3.1523    1.5615    0.0000 C   0  0  0  0  0  0  0  0  0  0  0  0
   -3.1523    3.2149    0.0000 C   0  0  0  0  0  0  0  0  0  0  0  0
    2.1336    3.8079    0.0000 C   0  0  0  0  0  0  0  0  0  0  0  0
    1.0397    5.3277    0.0000 C   0  0  0  0  0  0  0  0  0  0  0  0
    2.1336    2.3632    0.0000 C   0  0  0  0  0  0  0  0  0  0  0  0
   -3.8663    1.9749    0.0000 C   0  0  0  0  0  0  0  0  0  0  0  0
   -3.8663    2.8016    0.0000 C   0  0  0  0  0  0  0  0  0  0  0  0
    2.5553    3.0939    0.0000 C   0  0  0  0  0  0  0  0  0  0  0  0
   -4.5928    3.2192    0.0000 H   0  0  0  0  0  0  0  0  0  0  0  0
  2  1  2  0  0  0  0
  3  1  1  0  0  0  0
  4  1  1  0  0  0  0
  5  2  1  0  0  0  0
  6  5  1  0  0  0  0
  7  3  1  0  0  0  0
  8  4  1  0  0  0  0
  8  7  2  0  0  0  0
  9 13  1  0  0  0  0
 10  9  3  0  0  0  0
 11  5  2  0  0  0  0
 12  6  1  0  0  0  0
 13  3  1  0  0  0  0
 14  6  2  0  0  0  0
 15 12  1  0  0  0  0
 16  7  1  0  0  0  0
 17  8  1  0  0  0  0
 18 12  2  0  0  0  0
 18 23  1  0  0  0  0
 19 15  1  0  0  0  0
 20 14  1  0  0  0  0
 21 16  2  0  0  0  0
 22 17  2  0  0  0  0
 22 21  1  0  0  0  0
 23 20  2  0  0  0  0
 24 22  1  0  0  0  0
M  END
>  <CdId>
2214

>  <Mol Weight>
322.381

>  <Formula>
C18H14N2O2S

>  <Click_ID>
CLK029E10 __  __  __

$$$$
CLK029F06 __  __  __
 OpenBabel03171423152D

 27 30  0  0  0  0  0  0  0  0999 V2000
   -4.7348    5.0312    0.0000 C   0  0  0  0  0  0  0  0  0  0  0  0
   -2.6433    5.4018    0.0000 N   0  0  0  0  0  0  0  0  0  0  0  0
   -5.2042    5.6735    0.0000 N   0  0  0  0  0  0  0  0  0  0  0  0
   -5.2042    4.3642    0.0000 N   0  0  0  0  0  0  0  0  0  0  0  0
   -3.9196    4.9818    0.0000 C   0  0  3  0  0  0  0  0  0  0  0  0
   -2.6433    4.5702    0.0000 C   0  0  0  0  0  0  0  0  0  0  0  0
   -1.9680    5.8465    0.0000 C   0  0  0  0  0  0  0  0  0  0  0  0
   -3.4255    5.6488    0.0000 C   0  0  0  0  0  0  0  0  0  0  0  0
   -5.9947    4.6113    0.0000 C   0  0  0  0  0  0  0  0  0  0  0  0
   -5.9947    5.4265    0.0000 C   0  0  0  0  0  0  0  0  0  0  0  0
   -3.4255    4.3148    0.0000 C   0  0  0  0  0  0  0  0  0  0  0  0
   -1.2269    5.4759    0.0000 C   0  0  0  0  0  0  0  0  0  0  0  0
   -5.4842    2.9397    0.0000 C   0  0  0  0  0  0  0  0  0  0  0  0
   -6.0277    2.3221    0.0000 C   0  0  0  0  0  0  0  0  0  0  0  0
   -2.0174    6.6700    0.0000 C   0  0  0  0  0  0  0  0  0  0  0  0
   -1.9680    4.0925    0.0000 O   0  0  0  0  0  0  0  0  0  0  0  0
   -4.9324    3.5737    0.0000 C   0  0  0  0  0  0  0  0  0  0  0  0
   -1.3257    7.1310    0.0000 C   0  0  0  0  0  0  0  0  0  0  0  0
   -0.5435    5.9289    0.0000 C   0  0  0  0  0  0  0  0  0  0  0  0
   -0.5846    6.7605    0.0000 C   0  0  0  0  0  0  0  0  0  0  0  0
    0.1812    5.5500    0.0000 Cl  0  0  0  0  0  0  0  0  0  0  0  0
   -2.7421    7.0569    0.0000 O   0  0  0  0  0  0  0  0  0  0  0  0
   -6.6947    4.1913    0.0000 C   0  0  0  0  0  0  0  0  0  0  0  0
   -6.6947    5.8465    0.0000 C   0  0  0  0  0  0  0  0  0  0  0  0
   -2.7832    7.8721    0.0000 C   0  0  0  0  0  0  0  0  0  0  0  0
   -7.4111    4.6113    0.0000 C   0  0  0  0  0  0  0  0  0  0  0  0
   -7.4111    5.4265    0.0000 C   0  0  0  0  0  0  0  0  0  0  0  0
  2  8  1  0  0  0  0
  3  1  2  0  0  0  0
  4  1  1  0  0  0  0
  5  1  1  0  0  0  0
  6 11  1  0  0  0  0
  6  2  1  0  0  0  0
  7  2  1  0  0  0  0
  8  5  1  0  0  0  0
  9  4  1  0  0  0  0
  9 10  2  0  0  0  0
 10  3  1  0  0  0  0
 11  5  1  0  0  0  0
 12  7  1  0  0  0  0
 13 17  1  0  0  0  0
 14 13  3  0  0  0  0
 15  7  2  0  0  0  0
 16  6  2  0  0  0  0
 17  4  1  0  0  0  0
 18 15  1  0  0  0  0
 19 12  2  0  0  0  0
 19 20  1  0  0  0  0
 20 18  2  0  0  0  0
 21 19  1  0  0  0  0
 22 15  1  0  0  0  0
 23  9  1  0  0  0  0
 24 10  1  0  0  0  0
 25 22  1  0  0  0  0
 26 23  2  0  0  0  0
 27 24  2  0  0  0  0
 27 26  1  0  0  0  0
M  END
>  <CdId>
2220

>  <Mol Weight>
379.84

>  <Formula>
C21H18ClN3O2

>  <Click_ID>
CLK029F06 __  __  __

$$$$
CLK029G05 __  __  __
 OpenBabel03171423152D

 25 28  0  0  0  0  0  0  0  0999 V2000
   -4.7353    5.0318    0.0000 C   0  0  0  0  0  0  0  0  0  0  0  0
   -5.2048    5.6742    0.0000 N   0  0  0  0  0  0  0  0  0  0  0  0
   -5.2048    4.3647    0.0000 N   0  0  0  0  0  0  0  0  0  0  0  0
   -3.9200    4.9824    0.0000 C   0  0  3  0  0  0  0  0  0  0  0  0
   -2.6436    5.4024    0.0000 N   0  0  0  0  0  0  0  0  0  0  0  0
   -2.6436    4.5707    0.0000 C   0  0  0  0  0  0  0  0  0  0  0  0
   -3.4259    5.6495    0.0000 C   0  0  0  0  0  0  0  0  0  0  0  0
   -5.9954    4.6118    0.0000 C   0  0  0  0  0  0  0  0  0  0  0  0
   -5.9954    5.4271    0.0000 C   0  0  0  0  0  0  0  0  0  0  0  0
   -3.4259    4.3153    0.0000 C   0  0  0  0  0  0  0  0  0  0  0  0
   -1.9682    5.8471    0.0000 C   0  0  0  0  0  0  0  0  0  0  0  0
   -5.4848    2.9401    0.0000 C   0  0  0  0  0  0  0  0  0  0  0  0
   -6.0284    2.3224    0.0000 C   0  0  0  0  0  0  0  0  0  0  0  0
   -1.9682    4.0930    0.0000 O   0  0  0  0  0  0  0  0  0  0  0  0
   -4.9330    3.5741    0.0000 C   0  0  0  0  0  0  0  0  0  0  0  0
   -1.2270    5.4848    0.0000 C   0  0  0  0  0  0  0  0  0  0  0  0
   -2.0176    6.6624    0.0000 C   0  0  0  0  0  0  0  0  0  0  0  0
   -0.5847    6.7613    0.0000 C   0  0  0  0  0  0  0  0  0  0  0  0
   -1.3341    7.1319    0.0000 C   0  0  0  0  0  0  0  0  0  0  0  0
   -0.5352    5.9459    0.0000 C   0  0  0  0  0  0  0  0  0  0  0  0
    0.1235    7.2307    0.0000 Br  0  0  0  0  0  0  0  0  0  0  0  0
   -6.6954    4.1918    0.0000 C   0  0  0  0  0  0  0  0  0  0  0  0
   -6.6954    5.8471    0.0000 C   0  0  0  0  0  0  0  0  0  0  0  0
   -7.4119    4.6118    0.0000 C   0  0  0  0  0  0  0  0  0  0  0  0
   -7.4119    5.4271    0.0000 C   0  0  0  0  0  0  0  0  0  0  0  0
  2  1  2  0  0  0  0
  3  1  1  0  0  0  0
  4  1  1  0  0  0  0
  5  7  1  0  0  0  0
  6 10  1  0  0  0  0
  6  5  1  0  0  0  0
  7  4  1  0  0  0  0
  8  3  1  0  0  0  0
  8  9  2  0  0  0  0
  9  2  1  0  0  0  0
 10  4  1  0  0  0  0
 11  5  1  0  0  0  0
 12 15  1  0  0  0  0
 13 12  3  0  0  0  0
 14  6  2  0  0  0  0
 15  3  1  0  0  0  0
 16 11  1  0  0  0  0
 17 11  2  0  0  0  0
 18 19  2  0  0  0  0
 19 17  1  0  0  0  0
 20 16  2  0  0  0  0
 20 18  1  0  0  0  0
 21 18  1  0  0  0  0
 22  8  1  0  0  0  0
 23  9  1  0  0  0  0
 24 22  2  0  0  0  0
 25 23  2  0  0  0  0
 25 24  1  0  0  0  0
M  END
>  <CdId>
2229

>  <Mol Weight>
394.265

>  <Formula>
C20H16BrN3O

>  <Click_ID>
CLK029G05 __  __  __

$$$$
CLK030H08 __  __  __
 OpenBabel03171423152D

 26 28  0  0  0  0  0  0  0  0999 V2000
   -1.1649    2.3882    0.0000 C   0  0  0  0  0  0  0  0  0  0  0  0
   -0.3382    2.3799    0.0000 N   0  0  0  0  0  0  0  0  0  0  0  0
   -4.5928    3.2192    0.0000 S   0  0  0  0  0  0  0  0  0  0  0  0
   -1.6492    1.7244    0.0000 N   0  0  0  0  0  0  0  0  0  0  0  0
   -1.6492    3.0563    0.0000 S   0  0  0  0  0  0  0  0  0  0  0  0
    0.0752    3.0939    0.0000 C   0  0  0  0  0  0  0  0  0  0  0  0
   -2.4383    2.8016    0.0000 C   0  0  0  0  0  0  0  0  0  0  0  0
   -2.4383    1.9749    0.0000 C   0  0  0  0  0  0  0  0  0  0  0  0
    0.9019    3.0939    0.0000 C   0  0  0  0  0  0  0  0  0  0  0  0
   -3.8663    2.8016    0.0000 C   0  0  0  0  0  0  0  0  0  0  0  0
   -3.1523    3.2149    0.0000 C   0  0  0  0  0  0  0  0  0  0  0  0
   -1.9498    0.3215    0.0000 C   0  0  0  0  0  0  0  0  0  0  0  0
   -3.1523    1.5615    0.0000 C   0  0  0  0  0  0  0  0  0  0  0  0
   -2.5010   -0.2923    0.0000 C   0  0  0  0  0  0  0  0  0  0  0  0
   -5.0312    2.5135    0.0000 O   0  0  0  0  0  0  0  0  0  0  0  0
   -4.1544    3.9164    0.0000 O   0  0  0  0  0  0  0  0  0  0  0  0
    1.3152    2.3882    0.0000 C   0  0  0  0  0  0  0  0  0  0  0  0
   -0.3382    3.8079    0.0000 O   0  0  0  0  0  0  0  0  0  0  0  0
   -5.2942    3.6534    0.0000 N   0  0  0  0  0  0  0  0  0  0  0  0
   -3.8663    1.9749    0.0000 C   0  0  0  0  0  0  0  0  0  0  0  0
   -1.3987    0.9352    0.0000 C   0  0  0  0  0  0  0  0  0  0  0  0
    0.8810    1.6617    0.0000 Cl  0  0  0  0  0  0  0  0  0  0  0  0
    1.3194    3.8079    0.0000 C   0  0  0  0  0  0  0  0  0  0  0  0
    2.1336    2.3799    0.0000 C   0  0  0  0  0  0  0  0  0  0  0  0
    2.1461    3.8037    0.0000 C   0  0  0  0  0  0  0  0  0  0  0  0
    2.5553    3.0897    0.0000 C   0  0  0  0  0  0  0  0  0  0  0  0
  2  1  2  0  0  0  0
  3 10  1  0  0  0  0
  4  1  1  0  0  0  0
  5  1  1  0  0  0  0
  6  2  1  0  0  0  0
  7  5  1  0  0  0  0
  7  8  2  0  0  0  0
  8  4  1  0  0  0  0
  9  6  1  0  0  0  0
 10 11  2  0  0  0  0
 10 20  1  0  0  0  0
 11  7  1  0  0  0  0
 12 21  1  0  0  0  0
 13  8  1  0  0  0  0
 14 12  3  0  0  0  0
 15  3  2  0  0  0  0
 16  3  2  0  0  0  0
 17  9  2  0  0  0  0
 18  6  2  0  0  0  0
 19  3  1  0  0  0  0
 20 13  2  0  0  0  0
 21  4  1  0  0  0  0
 22 17  1  0  0  0  0
 23  9  1  0  0  0  0
 24 17  1  0  0  0  0
 25 23  2  0  0  0  0
 26 25  1  0  0  0  0
 26 24  2  0  0  0  0
M  END
>  <CdId>
2322

>  <Mol Weight>
405.878

>  <Formula>
C17H12ClN3O3S2

>  <Click_ID>
CLK030H08 __  __  __

$$$$
CLK031C05 __  __  __
 OpenBabel03171423152D

 29 31  0  0  0  0  0  0  0  0999 V2000
   -1.1625    2.3833    0.0000 C   0  0  0  0  0  0  0  0  0  0  0  0
   -4.5833    3.2125    0.0000 S   0  0  0  0  0  0  0  0  0  0  0  0
   -1.6458    1.7208    0.0000 N   0  0  0  0  0  0  0  0  0  0  0  0
   -0.3375    2.3750    0.0000 N   0  0  0  0  0  0  0  0  0  0  0  0
   -1.6458    3.0500    0.0000 S   0  0  0  0  0  0  0  0  0  0  0  0
   -2.4333    2.7958    0.0000 C   0  0  0  0  0  0  0  0  0  0  0  0
   -2.4333    1.9708    0.0000 C   0  0  0  0  0  0  0  0  0  0  0  0
   -3.8583    2.7958    0.0000 C   0  0  0  0  0  0  0  0  0  0  0  0
   -3.1458    3.2083    0.0000 C   0  0  0  0  0  0  0  0  0  0  0  0
    0.0750    3.0875    0.0000 C   0  0  0  0  0  0  0  0  0  0  0  0
   -1.9458    0.3208    0.0000 C   0  0  0  0  0  0  0  0  0  0  0  0
   -3.1458    1.5583    0.0000 C   0  0  0  0  0  0  0  0  0  0  0  0
    1.3167    5.2167    0.0000 C   0  0  0  0  0  0  0  0  0  0  0  0
   -2.4958   -0.2917    0.0000 C   0  0  0  0  0  0  0  0  0  0  0  0
   -5.0208    2.5083    0.0000 O   0  0  0  0  0  0  0  0  0  0  0  0
   -4.1458    3.9083    0.0000 O   0  0  0  0  0  0  0  0  0  0  0  0
    0.9042    5.9417    0.0000 C   0  0  0  0  0  0  0  0  0  0  0  0
    0.9042    4.5042    0.0000 C   0  0  0  0  0  0  0  0  0  0  0  0
   -5.2833    3.6458    0.0000 N   0  0  0  0  0  0  0  0  0  0  0  0
   -3.8583    1.9708    0.0000 C   0  0  0  0  0  0  0  0  0  0  0  0
    1.3125    3.7958    0.0000 O   0  0  0  0  0  0  0  0  0  0  0  0
   -1.3958    0.9333    0.0000 C   0  0  0  0  0  0  0  0  0  0  0  0
   -0.3375    3.8000    0.0000 O   0  0  0  0  0  0  0  0  0  0  0  0
    0.0750    4.5125    0.0000 C   0  0  0  0  0  0  0  0  0  0  0  0
    0.0792    5.9500    0.0000 C   0  0  0  0  0  0  0  0  0  0  0  0
    0.9000    3.0875    0.0000 C   0  0  0  0  0  0  0  0  0  0  0  0
    2.1542    5.2167    0.0000 Cl  0  0  0  0  0  0  0  0  0  0  0  0
   -0.3375    5.2292    0.0000 C   0  0  0  0  0  0  0  0  0  0  0  0
   -0.3333    6.6667    0.0000 Cl  0  0  0  0  0  0  0  0  0  0  0  0
  2  8  1  0  0  0  0
  3  1  1  0  0  0  0
  4  1  2  0  0  0  0
  5  1  1  0  0  0  0
  6  5  1  0  0  0  0
  6  7  2  0  0  0  0
  7  3  1  0  0  0  0
  8  9  2  0  0  0  0
  8 20  1  0  0  0  0
  9  6  1  0  0  0  0
 10  4  1  0  0  0  0
 11 22  1  0  0  0  0
 12  7  1  0  0  0  0
 13 18  2  0  0  0  0
 14 11  3  0  0  0  0
 15  2  2  0  0  0  0
 16  2  2  0  0  0  0
 17 13  1  0  0  0  0
 18 21  1  0  0  0  0
 19  2  1  0  0  0  0
 20 12  2  0  0  0  0
 21 26  1  0  0  0  0
 22  3  1  0  0  0  0
 23 10  2  0  0  0  0
 24 18  1  0  0  0  0
 25 28  1  0  0  0  0
 25 17  2  0  0  0  0
 26 10  1  0  0  0  0
 27 13  1  0  0  0  0
 28 24  2  0  0  0  0
 29 25  1  0  0  0  0
M  END
>  <CdId>
2349

>  <Mol Weight>
470.35

>  <Formula>
C18H13Cl2N3O4S2

>  <Click_ID>
CLK031C05 __  __  __

$$$$
CLK032B10 __  __  __
 OpenBabel03171423152D

 19 21  0  0  0  0  0  0  0  0999 V2000
   -1.8964    2.1589    0.0000 C   0  0  0  0  0  0  0  0  0  0  0  0
   -1.0711    2.1589    0.0000 N   0  0  0  0  0  0  0  0  0  0  0  0
   -2.3756    2.8215    0.0000 N   0  0  0  0  0  0  0  0  0  0  0  0
   -2.3756    1.4837    0.0000 S   0  0  0  0  0  0  0  0  0  0  0  0
   -3.1634    2.5590    0.0000 C   0  0  0  0  0  0  0  0  0  0  0  0
   -0.6585    1.4462    0.0000 C   0  0  0  0  0  0  0  0  0  0  0  0
   -3.1592    1.7337    0.0000 C   0  0  0  0  0  0  0  0  0  0  0  0
    0.1667    1.4462    0.0000 C   0  0  0  0  0  0  0  0  0  0  0  0
    0.8795    1.0378    0.0000 C   0  0  0  0  0  0  0  0  0  0  0  0
    0.8795    1.8589    0.0000 C   0  0  0  0  0  0  0  0  0  0  0  0
   -1.3211    3.7718    0.0000 C   0  0  0  0  0  0  0  0  0  0  0  0
   -0.5209    3.9468    0.0000 C   0  0  0  0  0  0  0  0  0  0  0  0
   -3.8760    2.9841    0.0000 C   0  0  0  0  0  0  0  0  0  0  0  0
   -1.0628    0.7252    0.0000 O   0  0  0  0  0  0  0  0  0  0  0  0
   -2.1256    3.6093    0.0000 C   0  0  0  0  0  0  0  0  0  0  0  0
   -3.8760    3.8010    0.0000 F   0  0  0  0  0  0  0  0  0  0  0  0
   -3.8760    1.3254    0.0000 C   0  0  0  0  0  0  0  0  0  0  0  0
   -4.5846    1.7337    0.0000 C   0  0  0  0  0  0  0  0  0  0  0  0
   -4.5846    2.5590    0.0000 C   0  0  0  0  0  0  0  0  0  0  0  0
  2  1  2  0  0  0  0
  3  1  1  0  0  0  0
  4  1  1  0  0  0  0
  5  3  1  0  0  0  0
  6  2  1  0  0  0  0
  7  4  1  0  0  0  0
  7  5  2  0  0  0  0
  8  6  1  0  0  0  0
  9  8  1  0  0  0  0
 10  8  1  0  0  0  0
 10  9  1  0  0  0  0
 11 15  1  0  0  0  0
 12 11  3  0  0  0  0
 13  5  1  0  0  0  0
 14  6  2  0  0  0  0
 15  3  1  0  0  0  0
 16 13  1  0  0  0  0
 17  7  1  0  0  0  0
 18 17  2  0  0  0  0
 18 19  1  0  0  0  0
 19 13  2  0  0  0  0
M  END
>  <CdId>
2424

>  <Mol Weight>
274.313

>  <Formula>
C14H11FN2OS

>  <Click_ID>
CLK032B10 __  __  __

$$$$
CLK034A08 __  __  __
 OpenBabel03171423152D

 28 31  0  0  0  0  0  0  0  0999 V2000
   -3.1583    5.0542    0.0000 N   0  0  0  0  0  0  0  0  0  0  0  0
   -4.5833    2.5500    0.0000 C   0  0  0  0  0  0  0  0  0  0  0  0
   -2.4958    5.5292    0.0000 C   0  0  0  0  0  0  0  0  0  0  0  0
   -3.8125    5.5292    0.0000 C   0  0  0  0  0  0  0  0  0  0  0  0
   -4.6750    1.7333    0.0000 N   0  0  0  0  0  0  0  0  0  0  0  0
   -3.8708    2.9708    0.0000 N   0  0  0  0  0  0  0  0  0  0  0  0
   -5.3208    2.8958    0.0000 S   0  0  0  0  0  0  0  0  0  0  0  0
   -5.4833    1.5708    0.0000 C   0  0  0  0  0  0  0  0  0  0  0  0
   -2.7375    6.3125    0.0000 C   0  0  0  0  0  0  0  0  0  0  0  0
   -3.5625    6.3167    0.0000 C   0  0  0  0  0  0  0  0  0  0  0  0
   -5.8833    2.2958    0.0000 C   0  0  0  0  0  0  0  0  0  0  0  0
   -3.8708    3.8000    0.0000 C   0  0  0  0  0  0  0  0  0  0  0  0
   -3.1583    4.2125    0.0000 C   0  0  0  0  0  0  0  0  0  0  0  0
   -4.2458    0.3500    0.0000 C   0  0  0  0  0  0  0  0  0  0  0  0
   -4.4208   -0.4542    0.0000 C   0  0  0  0  0  0  0  0  0  0  0  0
   -1.7208    5.2667    0.0000 O   0  0  0  0  0  0  0  0  0  0  0  0
   -4.6125    5.2792    0.0000 O   0  0  0  0  0  0  0  0  0  0  0  0
   -5.9083    0.8708    0.0000 C   0  0  0  0  0  0  0  0  0  0  0  0
   -4.5958    4.2125    0.0000 O   0  0  0  0  0  0  0  0  0  0  0  0
   -4.0583    1.1583    0.0000 C   0  0  0  0  0  0  0  0  0  0  0  0
   -5.5083    0.1458    0.0000 Cl  0  0  0  0  0  0  0  0  0  0  0  0
   -6.7042    2.3083    0.0000 C   0  0  0  0  0  0  0  0  0  0  0  0
   -2.3208    7.0292    0.0000 C   0  0  0  0  0  0  0  0  0  0  0  0
   -3.9708    7.0292    0.0000 C   0  0  0  0  0  0  0  0  0  0  0  0
   -7.1292    1.6000    0.0000 C   0  0  0  0  0  0  0  0  0  0  0  0
   -6.7167    0.8750    0.0000 C   0  0  0  0  0  0  0  0  0  0  0  0
   -3.5500    7.7417    0.0000 C   0  0  0  0  0  0  0  0  0  0  0  0
   -2.7250    7.7417    0.0000 C   0  0  0  0  0  0  0  0  0  0  0  0
  2  6  2  0  0  0  0
  3  1  1  0  0  0  0
  4  1  1  0  0  0  0
  5  2  1  0  0  0  0
  6 12  1  0  0  0  0
  7  2  1  0  0  0  0
  8  5  1  0  0  0  0
  9  3  1  0  0  0  0
  9 10  2  0  0  0  0
 10  4  1  0  0  0  0
 11  7  1  0  0  0  0
 11  8  2  0  0  0  0
 12 13  1  0  0  0  0
 13  1  1  0  0  0  0
 14 20  1  0  0  0  0
 15 14  3  0  0  0  0
 16  3  2  0  0  0  0
 17  4  2  0  0  0  0
 18  8  1  0  0  0  0
 19 12  2  0  0  0  0
 20  5  1  0  0  0  0
 21 18  1  0  0  0  0
 22 11  1  0  0  0  0
 23  9  1  0  0  0  0
 24 10  1  0  0  0  0
 25 22  2  0  0  0  0
 26 18  2  0  0  0  0
 26 25  1  0  0  0  0
 27 24  2  0  0  0  0
 28 23  2  0  0  0  0
 28 27  1  0  0  0  0
M  END
>  <CdId>
2572

>  <Mol Weight>
409.846

>  <Formula>
C20H12ClN3O3S

>  <Click_ID>
CLK034A08 __  __  __

$$$$
CLK034E07 __  __  __
 OpenBabel03171423152D

 27 30  0  0  0  0  0  0  0  0999 V2000
   -4.5833    2.5500    0.0000 C   0  0  0  0  0  0  0  0  0  0  0  0
   -3.1583    4.2125    0.0000 C   0  0  0  0  0  0  0  0  0  0  0  0
   -3.8708    2.9708    0.0000 N   0  0  0  0  0  0  0  0  0  0  0  0
   -4.6750    1.7333    0.0000 N   0  0  0  0  0  0  0  0  0  0  0  0
   -3.8708    3.8000    0.0000 C   0  0  0  0  0  0  0  0  0  0  0  0
   -2.4458    3.8083    0.0000 C   0  0  0  0  0  0  0  0  0  0  0  0
   -5.3208    2.8958    0.0000 S   0  0  0  0  0  0  0  0  0  0  0  0
   -5.4833    1.5708    0.0000 C   0  0  0  0  0  0  0  0  0  0  0  0
   -3.1500    5.0417    0.0000 C   0  0  0  0  0  0  0  0  0  0  0  0
   -5.8833    2.2958    0.0000 C   0  0  0  0  0  0  0  0  0  0  0  0
   -1.7333    4.2125    0.0000 O   0  0  0  0  0  0  0  0  0  0  0  0
   -2.4458    5.4542    0.0000 C   0  0  0  0  0  0  0  0  0  0  0  0
   -1.7333    5.0417    0.0000 C   0  0  0  0  0  0  0  0  0  0  0  0
   -4.2458    0.3500    0.0000 C   0  0  0  0  0  0  0  0  0  0  0  0
   -4.4208   -0.4542    0.0000 C   0  0  0  0  0  0  0  0  0  0  0  0
   -5.9083    0.8708    0.0000 C   0  0  0  0  0  0  0  0  0  0  0  0
   -2.4375    2.9625    0.0000 O   0  0  0  0  0  0  0  0  0  0  0  0
   -4.5958    4.2125    0.0000 O   0  0  0  0  0  0  0  0  0  0  0  0
   -4.0583    1.1583    0.0000 C   0  0  0  0  0  0  0  0  0  0  0  0
   -5.5083    0.1458    0.0000 Cl  0  0  0  0  0  0  0  0  0  0  0  0
   -6.7042    2.3083    0.0000 C   0  0  0  0  0  0  0  0  0  0  0  0
   -7.1292    1.6000    0.0000 C   0  0  0  0  0  0  0  0  0  0  0  0
   -2.4458    6.2792    0.0000 C   0  0  0  0  0  0  0  0  0  0  0  0
   -1.0125    5.4542    0.0000 C   0  0  0  0  0  0  0  0  0  0  0  0
   -6.7167    0.8750    0.0000 C   0  0  0  0  0  0  0  0  0  0  0  0
   -1.7333    6.7042    0.0000 C   0  0  0  0  0  0  0  0  0  0  0  0
   -1.0208    6.2792    0.0000 C   0  0  0  0  0  0  0  0  0  0  0  0
  2  5  1  0  0  0  0
  3  1  2  0  0  0  0
  4  1  1  0  0  0  0
  5  3  1  0  0  0  0
  6  2  1  0  0  0  0
  7  1  1  0  0  0  0
  8  4  1  0  0  0  0
  9  2  2  0  0  0  0
 10  7  1  0  0  0  0
 10  8  2  0  0  0  0
 11  6  1  0  0  0  0
 11 13  1  0  0  0  0
 12  9  1  0  0  0  0
 13 12  2  0  0  0  0
 14 19  1  0  0  0  0
 15 14  3  0  0  0  0
 16  8  1  0  0  0  0
 17  6  2  0  0  0  0
 18  5  2  0  0  0  0
 19  4  1  0  0  0  0
 20 16  1  0  0  0  0
 21 10  1  0  0  0  0
 22 21  2  0  0  0  0
 23 12  1  0  0  0  0
 24 13  1  0  0  0  0
 24 27  2  0  0  0  0
 25 16  2  0  0  0  0
 25 22  1  0  0  0  0
 26 23  2  0  0  0  0
 27 26  1  0  0  0  0
M  END
>  <CdId>
2611

>  <Mol Weight>
394.831

>  <Formula>
C20H11ClN2O3S

>  <Click_ID>
CLK034E07 __  __  __

$$$$
CLK036H06 __  __  __
 OpenBabel03171423152D

 19 20  0  0  0  0  0  0  0  0999 V2000
   -0.6397    2.3586    0.0000 C   0  0  0  0  0  0  0  0  0  0  0  0
   -0.0322    2.7196    0.0000 S   0  0  0  0  0  0  0  0  0  0  0  0
   -0.6397    1.6510    0.0000 N   0  0  0  0  0  0  0  0  0  0  0  0
    0.5825    2.3586    0.0000 C   0  0  0  0  0  0  0  0  0  0  0  0
    0.5825    1.6510    0.0000 N   0  0  0  0  0  0  0  0  0  0  0  0
   -1.4902    2.5480    0.0000 N   0  0  0  0  0  0  0  0  0  0  0  0
   -2.1978    2.5587    0.0000 C   0  0  0  0  0  0  0  0  0  0  0  0
    1.7404    1.2544    0.0000 C   0  0  0  0  0  0  0  0  0  0  0  0
    1.6010    0.4467    0.0000 C   0  0  0  0  0  0  0  0  0  0  0  0
   -3.0734    2.5480    0.0000 N   0  0  0  0  0  0  0  0  0  0  0  0
   -2.2049    3.2592    0.0000 O   0  0  0  0  0  0  0  0  0  0  0  0
    1.2651    2.6016    0.0000 S   0  0  0  0  0  0  0  0  0  0  0  0
   -3.4915    3.2663    0.0000 C   0  0  0  0  0  0  0  0  0  0  0  0
    1.8905    2.0692    0.0000 C   0  0  0  0  0  0  0  0  0  0  0  0
   -3.0841    3.9704    0.0000 C   0  0  0  0  0  0  0  0  0  0  0  0
   -4.3170    3.2592    0.0000 C   0  0  0  0  0  0  0  0  0  0  0  0
   -4.7351    3.9704    0.0000 C   0  0  0  0  0  0  0  0  0  0  0  0
   -3.5022    4.6887    0.0000 C   0  0  0  0  0  0  0  0  0  0  0  0
   -4.3206    4.6887    0.0000 C   0  0  0  0  0  0  0  0  0  0  0  0
  2  1  1  0  0  0  0
  3  1  2  0  0  0  0
  4  2  1  0  0  0  0
  5  3  1  0  0  0  0
  5  4  2  0  0  0  0
  6  1  1  0  0  0  0
  7  6  1  0  0  0  0
  8 14  1  0  0  0  0
  9  8  3  0  0  0  0
 10  7  1  0  0  0  0
 11  7  2  0  0  0  0
 12  4  1  0  0  0  0
 13 10  1  0  0  0  0
 14 12  1  0  0  0  0
 15 13  1  0  0  0  0
 16 13  2  0  0  0  0
 17 16  1  0  0  0  0
 18 15  2  0  0  0  0
 18 19  1  0  0  0  0
 19 17  2  0  0  0  0
M  END
>  <CdId>
2768

>  <Mol Weight>
290.364

>  <Formula>
C12H10N4OS2

>  <Click_ID>
CLK036H06 __  __  __

$$$$
