ACETATE 2-BUTOXYETHANOL 2-ETHYLHEXYL SULFATE
 OpenBabel03171417322D

 24 22  0  0  0  0  0  0  0  0999 V2000
    0.0000    0.0000    0.0000 S   0  0  0  0  0  0  0  0  0  0  0  0
    0.0000   -0.8250    0.0000 O   0  5  0  0  0  0  0  0  0  0  0  0
    0.0000    0.8250    0.0000 O   0  5  0  0  0  0  0  0  0  0  0  0
    0.8250    0.0000    0.0000 O   0  0  0  0  0  0  0  0  0  0  0  0
   -0.8250    0.0000    0.0000 O   0  0  0  0  0  0  0  0  0  0  0  0
    8.0656    0.2822    0.0000 C   0  0  0  0  0  0  0  0  0  0  0  0
    8.0656    1.1072    0.0000 O   0  0  0  0  0  0  0  0  0  0  0  0
    7.3511   -0.1303    0.0000 C   0  0  0  0  0  0  0  0  0  0  0  0
    9.4945    0.2822    0.0000 C   0  0  0  0  0  0  0  0  0  0  0  0
   10.2090   -0.1303    0.0000 C   0  0  0  0  0  0  0  0  0  0  0  0
    8.7801   -0.1303    0.0000 O   0  0  0  0  0  0  0  0  0  0  0  0
   10.9235    0.2822    0.0000 O   0  0  0  0  0  0  0  0  0  0  0  0
   11.6379   -0.1303    0.0000 C   0  0  0  0  0  0  0  0  0  0  0  0
   12.3524    0.2822    0.0000 C   0  0  0  0  0  0  0  0  0  0  0  0
   13.0669   -0.1303    0.0000 C   0  0  0  0  0  0  0  0  0  0  0  0
   13.7814    0.2822    0.0000 C   0  0  0  0  0  0  0  0  0  0  0  0
    6.6366    0.2822    0.0000 C   0  0  0  0  0  0  0  0  0  0  0  0
    5.9222   -0.1303    0.0000 C   0  0  3  0  0  0  0  0  0  0  0  0
    5.2077    0.2822    0.0000 C   0  0  0  0  0  0  0  0  0  0  0  0
    4.4932   -0.1303    0.0000 C   0  0  0  0  0  0  0  0  0  0  0  0
    3.7788    0.2822    0.0000 C   0  0  0  0  0  0  0  0  0  0  0  0
    3.0643   -0.1303    0.0000 C   0  0  0  0  0  0  0  0  0  0  0  0
    5.9222   -0.9553    0.0000 C   0  0  0  0  0  0  0  0  0  0  0  0
    5.2077   -1.3678    0.0000 C   0  0  0  0  0  0  0  0  0  0  0  0
  1  2  1  0  0  0  0
  1  3  1  0  0  0  0
  1  4  2  0  0  0  0
  1  5  2  0  0  0  0
  6  7  2  0  0  0  0
  6  8  1  0  0  0  0
  6 11  1  0  0  0  0
  8 17  1  0  0  0  0
  9 10  1  0  0  0  0
  9 11  1  0  0  0  0
 10 12  1  0  0  0  0
 12 13  1  0  0  0  0
 13 14  1  0  0  0  0
 14 15  1  0  0  0  0
 15 16  1  0  0  0  0
 17 18  1  0  0  0  0
 18 19  1  0  0  0  0
 18 23  1  0  0  0  0
 19 20  1  0  0  0  0
 20 21  1  0  0  0  0
 21 22  1  0  0  0  0
 23 24  1  0  0  0  0
M  END
> <type>
systematic __ 

$$$$
